 energy: -221.264353925996 gnorm: 0.000406024058 xtb: 6.7.1 (edcfbbe)
          08182523073D

151157  0     0  0            999 V2000
    0.6003   14.7603  -13.2442 C   0  0  0  0  0  0  0  0  0  0  0  0
    0.1600   14.0236  -11.9813 C   0  0  0  0  0  0  0  0  0  0  0  0
   -0.6319   14.8442  -11.1338 O   0  0  0  0  0  0  0  0  0  0  0  0
   -1.9940   14.8829  -11.4706 C   0  0  0  0  0  0  0  0  0  0  0  0
    1.3506   13.5606  -11.1633 C   0  0  0  0  0  0  0  0  0  0  0  0
    2.5410   14.0238  -11.5022 N   0  0  0  0  0  0  0  0  0  0  0  0
    3.6045   13.6331  -10.8236 C   0  0  0  0  0  0  0  0  0  0  0  0
    3.5433   12.7416   -9.7654 C   0  0  0  0  0  0  0  0  0  0  0  0
    2.3001   12.2491   -9.4040 C   0  0  0  0  0  0  0  0  0  0  0  0
    1.1692   12.6638  -10.1004 C   0  0  0  0  0  0  0  0  0  0  0  0
   -0.1639   12.1368   -9.7747 C   0  0  0  0  0  0  0  0  0  0  0  0
   -0.6027   10.9902  -10.4035 N   0  0  0  0  0  0  0  0  0  0  0  0
    0.1772   10.1474  -11.2694 C   0  0  0  0  0  0  0  0  0  0  0  0
    0.8199    8.9916  -10.5034 C   0  0  0  0  0  0  0  0  0  0  0  0
   -1.1443   12.6313   -8.9496 C   0  0  0  0  0  0  0  0  0  0  0  0
   -1.1481   13.8688   -8.1094 C   0  0  0  0  0  0  0  0  0  0  0  0
   -0.2415   13.8893   -6.8465 C   0  0  0  0  0  0  0  0  0  0  0  0
   -0.9537   14.6707   -5.7378 C   0  0  0  0  0  0  0  0  0  0  0  0
    1.0721   14.6096   -7.1703 C   0  0  0  0  0  0  0  0  0  0  0  0
    0.1082   12.4776   -6.3365 C   0  0  0  0  0  0  0  0  0  0  0  0
   -0.8177   11.9838   -5.3629 O   0  0  0  0  0  0  0  0  0  0  0  0
   -1.2768   10.7500   -5.4961 C   0  0  0  0  0  0  0  0  0  0  0  0
   -2.0831   10.3338   -4.2671 C   0  0  0  0  0  0  0  0  0  0  0  0
   -2.2370    8.8864   -4.3082 N   0  0  0  0  0  0  0  0  0  0  0  0
   -3.0332    8.3980   -3.2667 N   0  0  0  0  0  0  0  0  0  0  0  0
   -4.2776    7.8989   -3.3488 C   0  0  0  0  0  0  0  0  0  0  0  0
   -4.9806    7.9996   -4.7058 C   0  0  0  0  0  0  0  0  0  0  0  0
   -6.0306    7.0137   -4.7493 N   0  0  0  0  0  0  0  0  0  0  0  0
   -6.2188    6.2144   -5.8143 C   0  0  0  0  0  0  0  0  0  0  0  0
   -7.3938    5.2423   -5.6630 C   0  0  0  0  0  0  0  0  0  0  0  0
   -6.9302    3.8477   -5.2033 C   0  0  0  0  0  0  0  0  0  0  0  0
   -8.1053    2.8723   -5.2196 C   0  0  0  0  0  0  0  0  0  0  0  0
   -6.3437    3.9384   -3.7954 C   0  0  0  0  0  0  0  0  0  0  0  0
   -8.1525    5.2317   -6.9108 N   0  0  0  0  0  0  0  0  0  0  0  0
   -9.2678    5.9852   -6.9284 C   0  0  0  0  0  0  0  0  0  0  0  0
  -10.1330    6.0525   -8.2007 C   0  0  0  0  0  0  0  0  0  0  0  0
  -10.9128    7.3706   -8.2238 C   0  0  0  0  0  0  0  0  0  0  0  0
  -11.9020    7.3823   -9.3909 C   0  0  0  0  0  0  0  0  0  0  0  0
  -12.7723    6.2371   -9.3207 N   0  0  0  0  0  0  0  0  0  0  0  0
  -14.1035    6.2839   -9.0679 C   0  0  0  0  0  0  0  0  0  0  0  0
  -14.6673    7.6097   -8.9965 C   0  0  0  0  0  0  0  0  0  0  0  0
  -15.2609    8.6559   -8.9396 C   0  0  0  0  0  0  0  0  0  0  0  0
  -16.0146    9.8996   -8.7873 C   0  0  0  0  0  0  0  0  0  0  0  0
  -17.1721    9.7121   -7.8979 N   0  0  0  0  0  0  0  0  0  0  0  0
  -16.8054    9.3426   -6.5423 C   0  0  0  0  0  0  0  0  0  0  0  0
  -18.1536    8.7751   -8.4173 C   0  0  0  0  0  0  0  0  0  0  0  0
  -15.0828   10.9820   -8.2163 C   0  0  0  0  0  0  0  0  0  0  0  0
  -16.4873   10.3569  -10.1773 C   0  0  0  0  0  0  0  0  0  0  0  0
  -14.7939    5.2892   -8.9305 O   0  0  0  0  0  0  0  0  0  0  0  0
  -12.0860    4.9692   -9.3602 C   0  0  0  0  0  0  0  0  0  0  0  0
  -11.1003    4.8617   -8.1949 C   0  0  0  0  0  0  0  0  0  0  0  0
   -9.6867    6.5567   -5.9308 O   0  0  0  0  0  0  0  0  0  0  0  0
   -7.5337    4.6460   -8.0814 C   0  0  0  0  0  0  0  0  0  0  0  0
   -5.5435    6.2917   -6.8219 O   0  0  0  0  0  0  0  0  0  0  0  0
   -5.5577    9.4262   -4.8350 C   0  0  0  0  0  0  0  0  0  0  0  0
   -5.1231   10.1347   -6.1233 C   0  0  0  0  0  0  0  0  0  0  0  0
   -5.9053    9.6656   -7.3622 C   0  0  0  0  0  0  0  0  0  0  0  0
   -5.7533   10.6463   -8.4194 N   0  0  0  0  0  0  0  0  0  0  0  0
   -6.4176   11.8831   -8.0452 C   0  0  0  0  0  0  0  0  0  0  0  0
   -6.3583   12.1329   -6.5220 C   0  0  0  0  0  0  0  0  0  0  0  0
   -5.2089   11.5470   -5.9515 O   0  0  0  0  0  0  0  0  0  0  0  0
   -4.8518    7.4078   -2.3892 O   0  0  0  0  0  0  0  0  0  0  0  0
   -2.3760    8.5948   -1.9891 C   0  0  0  0  0  0  0  0  0  0  0  0
   -2.1508   10.0941   -1.7811 C   0  0  0  0  0  0  0  0  0  0  0  0
   -1.3607   10.6700   -2.9568 C   0  0  0  0  0  0  0  0  0  0  0  0
   -1.0871   10.0278   -6.4400 O   0  0  0  0  0  0  0  0  0  0  0  0
   -2.2585   11.7460   -9.0839 C   0  0  0  0  0  0  0  0  0  0  0  0
   -1.8764   10.7258   -9.9831 C   0  0  0  0  0  0  0  0  0  0  0  0
   -2.7463    9.6950  -10.3190 C   0  0  0  0  0  0  0  0  0  0  0  0
   -4.0064    9.7138   -9.7698 C   0  0  0  0  0  0  0  0  0  0  0  0
   -4.4157   10.7346   -8.8954 C   0  0  0  0  0  0  0  0  0  0  0  0
   -3.5422   11.7442   -8.5411 C   0  0  0  0  0  0  0  0  0  0  0  0
   -9.3753    6.0109   -9.3665 F   0  0  0  0  0  0  0  0  0  0  0  0
    1.1754   15.6376  -12.9658 H   0  0  0  0  0  0  0  0  0  0  0  0
    1.2239   14.1102  -13.8500 H   0  0  0  0  0  0  0  0  0  0  0  0
   -0.2659   15.0659  -13.8258 H   0  0  0  0  0  0  0  0  0  0  0  0
   -0.4292   13.1325  -12.2605 H   0  0  0  0  0  0  0  0  0  0  0  0
   -2.4463   13.8851  -11.4070 H   0  0  0  0  0  0  0  0  0  0  0  0
   -2.4696   15.5379  -10.7430 H   0  0  0  0  0  0  0  0  0  0  0  0
   -2.1587   15.2862  -12.4756 H   0  0  0  0  0  0  0  0  0  0  0  0
    4.5459   14.0510  -11.1553 H   0  0  0  0  0  0  0  0  0  0  0  0
    4.4368   12.4381   -9.2424 H   0  0  0  0  0  0  0  0  0  0  0  0
    2.2008   11.5476   -8.5871 H   0  0  0  0  0  0  0  0  0  0  0  0
   -0.4821    9.7531  -12.0491 H   0  0  0  0  0  0  0  0  0  0  0  0
    0.9505   10.7558  -11.7489 H   0  0  0  0  0  0  0  0  0  0  0  0
    1.5339    9.3697   -9.7763 H   0  0  0  0  0  0  0  0  0  0  0  0
    0.0577    8.4265   -9.9730 H   0  0  0  0  0  0  0  0  0  0  0  0
    1.3395    8.3293  -11.1909 H   0  0  0  0  0  0  0  0  0  0  0  0
   -0.8601   14.7131   -8.7391 H   0  0  0  0  0  0  0  0  0  0  0  0
   -2.1797   14.0279   -7.7924 H   0  0  0  0  0  0  0  0  0  0  0  0
   -0.3279   14.7257   -4.8497 H   0  0  0  0  0  0  0  0  0  0  0  0
   -1.1656   15.6821   -6.0764 H   0  0  0  0  0  0  0  0  0  0  0  0
   -1.8891   14.1891   -5.4650 H   0  0  0  0  0  0  0  0  0  0  0  0
    1.6993   14.6859   -6.2838 H   0  0  0  0  0  0  0  0  0  0  0  0
    1.6252   14.0838   -7.9419 H   0  0  0  0  0  0  0  0  0  0  0  0
    0.8663   15.6154   -7.5275 H   0  0  0  0  0  0  0  0  0  0  0  0
    0.1530   11.7658   -7.1650 H   0  0  0  0  0  0  0  0  0  0  0  0
    1.0795   12.5051   -5.8302 H   0  0  0  0  0  0  0  0  0  0  0  0
   -3.0429   10.8778   -4.3046 H   0  0  0  0  0  0  0  0  0  0  0  0
   -2.5238    8.5552   -5.2218 H   0  0  0  0  0  0  0  0  0  0  0  0
   -4.3130    7.7722   -5.5427 H   0  0  0  0  0  0  0  0  0  0  0  0
   -6.5177    6.8662   -3.8760 H   0  0  0  0  0  0  0  0  0  0  0  0
   -8.0847    5.6379   -4.9109 H   0  0  0  0  0  0  0  0  0  0  0  0
   -6.1444    3.4827   -5.8725 H   0  0  0  0  0  0  0  0  0  0  0  0
   -8.9079    3.2426   -4.5855 H   0  0  0  0  0  0  0  0  0  0  0  0
   -8.4963    2.7405   -6.2247 H   0  0  0  0  0  0  0  0  0  0  0  0
   -7.7900    1.9013   -4.8453 H   0  0  0  0  0  0  0  0  0  0  0  0
   -7.0863    4.3108   -3.0930 H   0  0  0  0  0  0  0  0  0  0  0  0
   -6.0292    2.9516   -3.4637 H   0  0  0  0  0  0  0  0  0  0  0  0
   -5.4782    4.5950   -3.7658 H   0  0  0  0  0  0  0  0  0  0  0  0
  -11.4339    7.4769   -7.2729 H   0  0  0  0  0  0  0  0  0  0  0  0
  -10.2074    8.1964   -8.3283 H   0  0  0  0  0  0  0  0  0  0  0  0
  -12.5008    8.2942   -9.3695 H   0  0  0  0  0  0  0  0  0  0  0  0
  -11.3450    7.3440  -10.3353 H   0  0  0  0  0  0  0  0  0  0  0  0
  -17.7190    9.2432   -5.9579 H   0  0  0  0  0  0  0  0  0  0  0  0
  -16.2554    8.3919   -6.4907 H   0  0  0  0  0  0  0  0  0  0  0  0
  -16.2049   10.1261   -6.0873 H   0  0  0  0  0  0  0  0  0  0  0  0
  -18.9576    8.6852   -7.6885 H   0  0  0  0  0  0  0  0  0  0  0  0
  -18.5843    9.1555   -9.3401 H   0  0  0  0  0  0  0  0  0  0  0  0
  -17.7363    7.7747   -8.5992 H   0  0  0  0  0  0  0  0  0  0  0  0
  -14.5320   10.6211   -7.3521 H   0  0  0  0  0  0  0  0  0  0  0  0
  -14.3594   11.2801   -8.9717 H   0  0  0  0  0  0  0  0  0  0  0  0
  -15.6733   11.8486   -7.9309 H   0  0  0  0  0  0  0  0  0  0  0  0
  -17.1926   11.1761  -10.0642 H   0  0  0  0  0  0  0  0  0  0  0  0
  -15.6359   10.6997  -10.7605 H   0  0  0  0  0  0  0  0  0  0  0  0
  -16.9599    9.5459  -10.7240 H   0  0  0  0  0  0  0  0  0  0  0  0
  -12.8372    4.1791   -9.3002 H   0  0  0  0  0  0  0  0  0  0  0  0
  -11.5432    4.8858  -10.3089 H   0  0  0  0  0  0  0  0  0  0  0  0
  -10.5451    3.9257   -8.2695 H   0  0  0  0  0  0  0  0  0  0  0  0
  -11.6393    4.8726   -7.2465 H   0  0  0  0  0  0  0  0  0  0  0  0
   -6.7180    4.0061   -7.7634 H   0  0  0  0  0  0  0  0  0  0  0  0
   -8.2498    4.0481   -8.6436 H   0  0  0  0  0  0  0  0  0  0  0  0
   -7.1187    5.4149   -8.7336 H   0  0  0  0  0  0  0  0  0  0  0  0
   -6.6475    9.3666   -4.7973 H   0  0  0  0  0  0  0  0  0  0  0  0
   -5.2409   10.0402   -3.9874 H   0  0  0  0  0  0  0  0  0  0  0  0
   -4.0566    9.9492   -6.3093 H   0  0  0  0  0  0  0  0  0  0  0  0
   -5.5283    8.6963   -7.6894 H   0  0  0  0  0  0  0  0  0  0  0  0
   -6.9712    9.5634   -7.1366 H   0  0  0  0  0  0  0  0  0  0  0  0
   -5.9665   12.7065   -8.5990 H   0  0  0  0  0  0  0  0  0  0  0  0
   -7.4686   11.8023   -8.3518 H   0  0  0  0  0  0  0  0  0  0  0  0
   -6.2803   13.1985   -6.2979 H   0  0  0  0  0  0  0  0  0  0  0  0
   -7.2627   11.7427   -6.0347 H   0  0  0  0  0  0  0  0  0  0  0  0
   -3.0177    8.1717   -1.2162 H   0  0  0  0  0  0  0  0  0  0  0  0
   -1.4183    8.0680   -2.0071 H   0  0  0  0  0  0  0  0  0  0  0  0
   -3.1185   10.5952   -1.7079 H   0  0  0  0  0  0  0  0  0  0  0  0
   -1.6109   10.2572   -0.8485 H   0  0  0  0  0  0  0  0  0  0  0  0
   -0.3681   10.2169   -2.9828 H   0  0  0  0  0  0  0  0  0  0  0  0
   -1.2517   11.7494   -2.8605 H   0  0  0  0  0  0  0  0  0  0  0  0
   -2.4533    8.9043  -10.9933 H   0  0  0  0  0  0  0  0  0  0  0  0
   -4.7143    8.9362  -10.0112 H   0  0  0  0  0  0  0  0  0  0  0  0
   -3.8349   12.5105   -7.8397 H   0  0  0  0  0  0  0  0  0  0  0  0
  1  2  1  0  0  0  0
  2  3  1  0  0  0  0
  2  5  1  0  0  0  0
  3  4  1  0  0  0  0
  5  6  2  0  0  0  0
  5 10  1  0  0  0  0
  6  7  1  0  0  0  0
  7  8  2  0  0  0  0
  8  9  1  0  0  0  0
  9 10  2  0  0  0  0
 10 11  1  0  0  0  0
 11 12  1  0  0  0  0
 11 15  2  0  0  0  0
 12 13  1  0  0  0  0
 12 68  1  0  0  0  0
 13 14  1  0  0  0  0
 15 16  1  0  0  0  0
 15 67  1  0  0  0  0
 16 17  1  0  0  0  0
 17 18  1  0  0  0  0
 17 19  1  0  0  0  0
 17 20  1  0  0  0  0
 20 21  1  0  0  0  0
 21 22  1  0  0  0  0
 22 23  1  0  0  0  0
 22 66  2  0  0  0  0
 23 24  1  0  0  0  0
 23 65  1  0  0  0  0
 24 25  1  0  0  0  0
 25 26  1  0  0  0  0
 25 63  1  0  0  0  0
 26 27  1  0  0  0  0
 26 62  2  0  0  0  0
 27 28  1  0  0  0  0
 27 55  1  0  0  0  0
 28 29  1  0  0  0  0
 29 30  1  0  0  0  0
 29 54  2  0  0  0  0
 30 31  1  0  0  0  0
 30 34  1  0  0  0  0
 31 32  1  0  0  0  0
 31 33  1  0  0  0  0
 34 35  1  0  0  0  0
 34 53  1  0  0  0  0
 35 36  1  0  0  0  0
 35 52  2  0  0  0  0
 36 37  1  0  0  0  0
 36 51  1  0  0  0  0
 36 73  1  0  0  0  0
 37 38  1  0  0  0  0
 38 39  1  0  0  0  0
 39 40  1  0  0  0  0
 39 50  1  0  0  0  0
 40 41  1  0  0  0  0
 40 49  2  0  0  0  0
 42 43  1  0  0  0  0
 43 44  1  0  0  0  0
 43 47  1  0  0  0  0
 43 48  1  0  0  0  0
 44 45  1  0  0  0  0
 44 46  1  0  0  0  0
 50 51  1  0  0  0  0
 55 56  1  0  0  0  0
 56 57  1  0  0  0  0
 56 61  1  0  0  0  0
 57 58  1  0  0  0  0
 58 59  1  0  0  0  0
 58 71  1  0  0  0  0
 59 60  1  0  0  0  0
 60 61  1  0  0  0  0
 63 64  1  0  0  0  0
 64 65  1  0  0  0  0
 67 68  2  0  0  0  0
 67 72  1  0  0  0  0
 68 69  1  0  0  0  0
 69 70  2  0  0  0  0
 70 71  1  0  0  0  0
 71 72  2  0  0  0  0
 41 42  3  0  0  0  0
  1 74  1  0  0  0  0
  1 75  1  0  0  0  0
  1 76  1  0  0  0  0
  2 77  1  0  0  0  0
  4 78  1  0  0  0  0
  4 79  1  0  0  0  0
  4 80  1  0  0  0  0
  7 81  1  0  0  0  0
  8 82  1  0  0  0  0
  9 83  1  0  0  0  0
 13 84  1  0  0  0  0
 13 85  1  0  0  0  0
 14 86  1  0  0  0  0
 14 87  1  0  0  0  0
 14 88  1  0  0  0  0
 16 89  1  0  0  0  0
 16 90  1  0  0  0  0
 18 91  1  0  0  0  0
 18 92  1  0  0  0  0
 18 93  1  0  0  0  0
 19 94  1  0  0  0  0
 19 95  1  0  0  0  0
 19 96  1  0  0  0  0
 20 97  1  0  0  0  0
 20 98  1  0  0  0  0
 23 99  1  0  0  0  0
 24100  1  0  0  0  0
 27101  1  0  0  0  0
 28102  1  0  0  0  0
 30103  1  0  0  0  0
 31104  1  0  0  0  0
 32105  1  0  0  0  0
 32106  1  0  0  0  0
 32107  1  0  0  0  0
 33108  1  0  0  0  0
 33109  1  0  0  0  0
 33110  1  0  0  0  0
 37111  1  0  0  0  0
 37112  1  0  0  0  0
 38113  1  0  0  0  0
 38114  1  0  0  0  0
 45115  1  0  0  0  0
 45116  1  0  0  0  0
 45117  1  0  0  0  0
 46118  1  0  0  0  0
 46119  1  0  0  0  0
 46120  1  0  0  0  0
 47121  1  0  0  0  0
 47122  1  0  0  0  0
 47123  1  0  0  0  0
 48124  1  0  0  0  0
 48125  1  0  0  0  0
 48126  1  0  0  0  0
 50127  1  0  0  0  0
 50128  1  0  0  0  0
 51129  1  0  0  0  0
 51130  1  0  0  0  0
 53131  1  0  0  0  0
 53132  1  0  0  0  0
 53133  1  0  0  0  0
 55134  1  0  0  0  0
 55135  1  0  0  0  0
 56136  1  0  0  0  0
 57137  1  0  0  0  0
 57138  1  0  0  0  0
 59139  1  0  0  0  0
 59140  1  0  0  0  0
 60141  1  0  0  0  0
 60142  1  0  0  0  0
 63143  1  0  0  0  0
 63144  1  0  0  0  0
 64145  1  0  0  0  0
 64146  1  0  0  0  0
 65147  1  0  0  0  0
 65148  1  0  0  0  0
 69149  1  0  0  0  0
 70150  1  0  0  0  0
 72151  1  0  0  0  0
M  END
$$$$
