 energy: -221.265615816051 gnorm: 0.000257934332 xtb: 6.7.1 (edcfbbe)
          08182522453D

151157  0     0  0            999 V2000
    0.3140   13.9185  -13.3820 C   0  0  0  0  0  0  0  0  0  0  0  0
   -0.2141   13.3851  -12.0522 C   0  0  0  0  0  0  0  0  0  0  0  0
   -1.1656   14.2614  -11.4648 O   0  0  0  0  0  0  0  0  0  0  0  0
   -2.4745   14.1052  -11.9476 C   0  0  0  0  0  0  0  0  0  0  0  0
    0.9036   13.2030  -11.0431 C   0  0  0  0  0  0  0  0  0  0  0  0
    2.0843   13.7160  -11.3420 N   0  0  0  0  0  0  0  0  0  0  0  0
    3.0885   13.5635  -10.4980 C   0  0  0  0  0  0  0  0  0  0  0  0
    2.9763   12.8711   -9.3037 C   0  0  0  0  0  0  0  0  0  0  0  0
    1.7430   12.3287   -8.9821 C   0  0  0  0  0  0  0  0  0  0  0  0
    0.6705   12.4999   -9.8520 C   0  0  0  0  0  0  0  0  0  0  0  0
   -0.6487   11.9176   -9.5649 C   0  0  0  0  0  0  0  0  0  0  0  0
   -0.9297   10.6418  -10.0080 N   0  0  0  0  0  0  0  0  0  0  0  0
    0.0037    9.7324  -10.6165 C   0  0  0  0  0  0  0  0  0  0  0  0
    0.6367    8.7988   -9.5852 C   0  0  0  0  0  0  0  0  0  0  0  0
   -1.7484   12.4590   -8.9450 C   0  0  0  0  0  0  0  0  0  0  0  0
   -1.9452   13.8238   -8.3643 C   0  0  0  0  0  0  0  0  0  0  0  0
   -1.1467   14.2006   -7.0843 C   0  0  0  0  0  0  0  0  0  0  0  0
   -2.0310   15.0769   -6.1913 C   0  0  0  0  0  0  0  0  0  0  0  0
    0.0919   15.0143   -7.4761 C   0  0  0  0  0  0  0  0  0  0  0  0
   -0.6709   12.9709   -6.2868 C   0  0  0  0  0  0  0  0  0  0  0  0
   -1.5980   12.5589   -5.2766 O   0  0  0  0  0  0  0  0  0  0  0  0
   -1.8902   11.2714   -5.1815 C   0  0  0  0  0  0  0  0  0  0  0  0
   -2.7542   10.9971   -3.9541 C   0  0  0  0  0  0  0  0  0  0  0  0
   -2.7745    9.5611   -3.7244 N   0  0  0  0  0  0  0  0  0  0  0  0
   -3.6532    9.1979   -2.6988 N   0  0  0  0  0  0  0  0  0  0  0  0
   -4.8822    8.6564   -2.8180 C   0  0  0  0  0  0  0  0  0  0  0  0
   -5.4140    8.4984   -4.2460 C   0  0  0  0  0  0  0  0  0  0  0  0
   -6.3382    7.3973   -4.3320 N   0  0  0  0  0  0  0  0  0  0  0  0
   -6.1385    6.3640   -5.1636 C   0  0  0  0  0  0  0  0  0  0  0  0
   -7.3402    5.4233   -5.3052 C   0  0  0  0  0  0  0  0  0  0  0  0
   -7.0331    4.0067   -4.8073 C   0  0  0  0  0  0  0  0  0  0  0  0
   -8.2859    3.1360   -4.8720 C   0  0  0  0  0  0  0  0  0  0  0  0
   -6.5229    4.0896   -3.3689 C   0  0  0  0  0  0  0  0  0  0  0  0
   -7.7469    5.4965   -6.7133 N   0  0  0  0  0  0  0  0  0  0  0  0
   -8.5739    6.5136   -7.0196 C   0  0  0  0  0  0  0  0  0  0  0  0
   -9.1152    6.6441   -8.4589 C   0  0  0  0  0  0  0  0  0  0  0  0
   -9.9056    7.9469   -8.6041 C   0  0  0  0  0  0  0  0  0  0  0  0
  -10.5443    8.0279   -9.9925 C   0  0  0  0  0  0  0  0  0  0  0  0
  -11.3600    6.8666  -10.2378 N   0  0  0  0  0  0  0  0  0  0  0  0
  -12.7111    6.8689  -10.3621 C   0  0  0  0  0  0  0  0  0  0  0  0
  -13.3208    8.1765  -10.3712 C   0  0  0  0  0  0  0  0  0  0  0  0
  -13.9826    9.1802  -10.4449 C   0  0  0  0  0  0  0  0  0  0  0  0
  -14.7082   10.4477  -10.3737 C   0  0  0  0  0  0  0  0  0  0  0  0
  -14.8205   10.9070   -8.9783 N   0  0  0  0  0  0  0  0  0  0  0  0
  -15.6297   10.0374   -8.1427 C   0  0  0  0  0  0  0  0  0  0  0  0
  -13.5429   11.1635   -8.3413 C   0  0  0  0  0  0  0  0  0  0  0  0
  -16.1063   10.2498  -10.9796 C   0  0  0  0  0  0  0  0  0  0  0  0
  -13.9646   11.5008  -11.2121 C   0  0  0  0  0  0  0  0  0  0  0  0
  -13.3712    5.8515  -10.4767 O   0  0  0  0  0  0  0  0  0  0  0  0
  -10.6437    5.6171  -10.1700 C   0  0  0  0  0  0  0  0  0  0  0  0
  -10.0073    5.4424   -8.7892 C   0  0  0  0  0  0  0  0  0  0  0  0
   -8.9979    7.2794   -6.1636 O   0  0  0  0  0  0  0  0  0  0  0  0
   -6.9646    4.7097   -7.6436 C   0  0  0  0  0  0  0  0  0  0  0  0
   -5.1202    6.2221   -5.8164 O   0  0  0  0  0  0  0  0  0  0  0  0
   -6.1080    9.8169   -4.6386 C   0  0  0  0  0  0  0  0  0  0  0  0
   -5.6985   10.2968   -6.0343 C   0  0  0  0  0  0  0  0  0  0  0  0
   -6.2994    9.4336   -7.1568 C   0  0  0  0  0  0  0  0  0  0  0  0
   -6.2046   10.1434   -8.4181 N   0  0  0  0  0  0  0  0  0  0  0  0
   -7.0334   11.3381   -8.3908 C   0  0  0  0  0  0  0  0  0  0  0  0
   -7.1916   11.9013   -6.9632 C   0  0  0  0  0  0  0  0  0  0  0  0
   -6.0330   11.6729   -6.1927 O   0  0  0  0  0  0  0  0  0  0  0  0
   -5.5490    8.3305   -1.8515 O   0  0  0  0  0  0  0  0  0  0  0  0
   -3.1556    9.6810   -1.4251 C   0  0  0  0  0  0  0  0  0  0  0  0
   -3.0538   11.2083   -1.4844 C   0  0  0  0  0  0  0  0  0  0  0  0
   -2.1947   11.6357   -2.6764 C   0  0  0  0  0  0  0  0  0  0  0  0
   -1.5326   10.4134   -5.9463 O   0  0  0  0  0  0  0  0  0  0  0  0
   -2.7722   11.4638   -9.0169 C   0  0  0  0  0  0  0  0  0  0  0  0
   -2.2189   10.3393   -9.6696 C   0  0  0  0  0  0  0  0  0  0  0  0
   -2.9667    9.1876   -9.8876 C   0  0  0  0  0  0  0  0  0  0  0  0
   -4.2742    9.1808   -9.4618 C   0  0  0  0  0  0  0  0  0  0  0  0
   -4.8473   10.2948   -8.8278 C   0  0  0  0  0  0  0  0  0  0  0  0
   -4.1016   11.4345   -8.5990 C   0  0  0  0  0  0  0  0  0  0  0  0
   -8.0699    6.7041   -9.3806 F   0  0  0  0  0  0  0  0  0  0  0  0
   -0.4947   14.0084  -14.1029 H   0  0  0  0  0  0  0  0  0  0  0  0
    0.7662   14.8923  -13.2236 H   0  0  0  0  0  0  0  0  0  0  0  0
    1.0671   13.2425  -13.7750 H   0  0  0  0  0  0  0  0  0  0  0  0
   -0.6917   12.4025  -12.2128 H   0  0  0  0  0  0  0  0  0  0  0  0
   -2.8509   13.0931  -11.7514 H   0  0  0  0  0  0  0  0  0  0  0  0
   -3.0869   14.8250  -11.4078 H   0  0  0  0  0  0  0  0  0  0  0  0
   -2.5449   14.3105  -13.0213 H   0  0  0  0  0  0  0  0  0  0  0  0
    4.0247   14.0111  -10.8047 H   0  0  0  0  0  0  0  0  0  0  0  0
    3.8242   12.7556   -8.6468 H   0  0  0  0  0  0  0  0  0  0  0  0
    1.6072   11.7766   -8.0628 H   0  0  0  0  0  0  0  0  0  0  0  0
   -0.5313    9.1443  -11.3688 H   0  0  0  0  0  0  0  0  0  0  0  0
    0.7806   10.3133  -11.1235 H   0  0  0  0  0  0  0  0  0  0  0  0
    1.2285    9.3674   -8.8726 H   0  0  0  0  0  0  0  0  0  0  0  0
   -0.1377    8.2667   -9.0386 H   0  0  0  0  0  0  0  0  0  0  0  0
    1.2827    8.0777  -10.0790 H   0  0  0  0  0  0  0  0  0  0  0  0
   -1.7019   14.5601   -9.1333 H   0  0  0  0  0  0  0  0  0  0  0  0
   -3.0091   13.9161   -8.1422 H   0  0  0  0  0  0  0  0  0  0  0  0
   -1.4870   15.3815   -5.2999 H   0  0  0  0  0  0  0  0  0  0  0  0
   -2.3355   15.9687   -6.7339 H   0  0  0  0  0  0  0  0  0  0  0  0
   -2.9207   14.5365   -5.8784 H   0  0  0  0  0  0  0  0  0  0  0  0
    0.6374   15.3374   -6.5913 H   0  0  0  0  0  0  0  0  0  0  0  0
    0.7600   14.4313   -8.1017 H   0  0  0  0  0  0  0  0  0  0  0  0
   -0.2059   15.8994   -8.0326 H   0  0  0  0  0  0  0  0  0  0  0  0
   -0.4900   12.1238   -6.9534 H   0  0  0  0  0  0  0  0  0  0  0  0
    0.2548   13.2177   -5.7555 H   0  0  0  0  0  0  0  0  0  0  0  0
   -3.7526   11.4211   -4.1610 H   0  0  0  0  0  0  0  0  0  0  0  0
   -2.8995    9.0291   -4.5776 H   0  0  0  0  0  0  0  0  0  0  0  0
   -4.6111    8.2529   -4.9477 H   0  0  0  0  0  0  0  0  0  0  0  0
   -7.1655    7.4531   -3.7591 H   0  0  0  0  0  0  0  0  0  0  0  0
   -8.1799    5.8221   -4.7277 H   0  0  0  0  0  0  0  0  0  0  0  0
   -6.2430    3.5691   -5.4222 H   0  0  0  0  0  0  0  0  0  0  0  0
   -9.0480    3.5266   -4.2010 H   0  0  0  0  0  0  0  0  0  0  0  0
   -8.7029    3.1084   -5.8754 H   0  0  0  0  0  0  0  0  0  0  0  0
   -8.0522    2.1184   -4.5686 H   0  0  0  0  0  0  0  0  0  0  0  0
   -7.2588    4.5656   -2.7245 H   0  0  0  0  0  0  0  0  0  0  0  0
   -6.3271    3.0910   -2.9862 H   0  0  0  0  0  0  0  0  0  0  0  0
   -5.6003    4.6624   -3.3178 H   0  0  0  0  0  0  0  0  0  0  0  0
  -10.6669    7.9792   -7.8251 H   0  0  0  0  0  0  0  0  0  0  0  0
   -9.2258    8.7876   -8.4617 H   0  0  0  0  0  0  0  0  0  0  0  0
  -11.1591    8.9260  -10.0748 H   0  0  0  0  0  0  0  0  0  0  0  0
   -9.7515    8.0709  -10.7493 H   0  0  0  0  0  0  0  0  0  0  0  0
  -15.6344   10.4431   -7.1320 H   0  0  0  0  0  0  0  0  0  0  0  0
  -16.6562   10.0241   -8.4992 H   0  0  0  0  0  0  0  0  0  0  0  0
  -15.2504    9.0063   -8.1014 H   0  0  0  0  0  0  0  0  0  0  0  0
  -13.7331   11.5378   -7.3362 H   0  0  0  0  0  0  0  0  0  0  0  0
  -12.9113   10.2656   -8.2619 H   0  0  0  0  0  0  0  0  0  0  0  0
  -12.9983   11.9323   -8.8831 H   0  0  0  0  0  0  0  0  0  0  0  0
  -16.5919    9.3648  -10.5785 H   0  0  0  0  0  0  0  0  0  0  0  0
  -16.7171   11.1249  -10.7732 H   0  0  0  0  0  0  0  0  0  0  0  0
  -16.0223   10.1220  -12.0560 H   0  0  0  0  0  0  0  0  0  0  0  0
  -14.3976   12.4794  -11.0223 H   0  0  0  0  0  0  0  0  0  0  0  0
  -12.9033   11.5264  -10.9803 H   0  0  0  0  0  0  0  0  0  0  0  0
  -14.0673   11.2662  -12.2686 H   0  0  0  0  0  0  0  0  0  0  0  0
  -11.3543    4.8123  -10.3689 H   0  0  0  0  0  0  0  0  0  0  0  0
   -9.8612    5.6110  -10.9377 H   0  0  0  0  0  0  0  0  0  0  0  0
   -9.4280    4.5198   -8.7697 H   0  0  0  0  0  0  0  0  0  0  0  0
  -10.7855    5.3816   -8.0264 H   0  0  0  0  0  0  0  0  0  0  0  0
   -7.2226    3.6525   -7.5594 H   0  0  0  0  0  0  0  0  0  0  0  0
   -7.1162    5.0292   -8.6659 H   0  0  0  0  0  0  0  0  0  0  0  0
   -5.9084    4.8442   -7.4033 H   0  0  0  0  0  0  0  0  0  0  0  0
   -7.1901    9.6731   -4.6051 H   0  0  0  0  0  0  0  0  0  0  0  0
   -5.8664   10.6053   -3.9208 H   0  0  0  0  0  0  0  0  0  0  0  0
   -4.6035   10.2650   -6.1266 H   0  0  0  0  0  0  0  0  0  0  0  0
   -5.7535    8.4924   -7.2295 H   0  0  0  0  0  0  0  0  0  0  0  0
   -7.3501    9.2097   -6.9519 H   0  0  0  0  0  0  0  0  0  0  0  0
   -6.6009   12.0822   -9.0605 H   0  0  0  0  0  0  0  0  0  0  0  0
   -8.0261   11.0703   -8.7782 H   0  0  0  0  0  0  0  0  0  0  0  0
   -7.3198   12.9854   -6.9795 H   0  0  0  0  0  0  0  0  0  0  0  0
   -8.0681   11.4560   -6.4723 H   0  0  0  0  0  0  0  0  0  0  0  0
   -3.8486    9.3547   -0.6498 H   0  0  0  0  0  0  0  0  0  0  0  0
   -2.1693    9.2429   -1.2527 H   0  0  0  0  0  0  0  0  0  0  0  0
   -4.0568   11.6288   -1.5865 H   0  0  0  0  0  0  0  0  0  0  0  0
   -2.6209   11.5818   -0.5566 H   0  0  0  0  0  0  0  0  0  0  0  0
   -1.1724   11.2823   -2.5329 H   0  0  0  0  0  0  0  0  0  0  0  0
   -2.1822   12.7204   -2.7762 H   0  0  0  0  0  0  0  0  0  0  0  0
   -2.5435    8.3225  -10.3755 H   0  0  0  0  0  0  0  0  0  0  0  0
   -4.8923    8.3091   -9.6112 H   0  0  0  0  0  0  0  0  0  0  0  0
   -4.5287   12.2809   -8.0826 H   0  0  0  0  0  0  0  0  0  0  0  0
  1  2  1  0  0  0  0
  2  3  1  0  0  0  0
  2  5  1  0  0  0  0
  3  4  1  0  0  0  0
  5  6  2  0  0  0  0
  5 10  1  0  0  0  0
  6  7  1  0  0  0  0
  7  8  2  0  0  0  0
  8  9  1  0  0  0  0
  9 10  2  0  0  0  0
 10 11  1  0  0  0  0
 11 12  1  0  0  0  0
 11 15  2  0  0  0  0
 12 13  1  0  0  0  0
 12 68  1  0  0  0  0
 13 14  1  0  0  0  0
 15 16  1  0  0  0  0
 15 67  1  0  0  0  0
 16 17  1  0  0  0  0
 17 18  1  0  0  0  0
 17 19  1  0  0  0  0
 17 20  1  0  0  0  0
 20 21  1  0  0  0  0
 21 22  1  0  0  0  0
 22 23  1  0  0  0  0
 22 66  2  0  0  0  0
 23 24  1  0  0  0  0
 23 65  1  0  0  0  0
 24 25  1  0  0  0  0
 25 26  1  0  0  0  0
 25 63  1  0  0  0  0
 26 27  1  0  0  0  0
 26 62  2  0  0  0  0
 27 28  1  0  0  0  0
 27 55  1  0  0  0  0
 28 29  1  0  0  0  0
 29 30  1  0  0  0  0
 29 54  2  0  0  0  0
 30 31  1  0  0  0  0
 30 34  1  0  0  0  0
 31 32  1  0  0  0  0
 31 33  1  0  0  0  0
 34 35  1  0  0  0  0
 34 53  1  0  0  0  0
 35 36  1  0  0  0  0
 35 52  2  0  0  0  0
 36 37  1  0  0  0  0
 36 51  1  0  0  0  0
 36 73  1  0  0  0  0
 37 38  1  0  0  0  0
 38 39  1  0  0  0  0
 39 40  1  0  0  0  0
 39 50  1  0  0  0  0
 40 41  1  0  0  0  0
 40 49  2  0  0  0  0
 42 43  1  0  0  0  0
 43 44  1  0  0  0  0
 43 47  1  0  0  0  0
 43 48  1  0  0  0  0
 44 45  1  0  0  0  0
 44 46  1  0  0  0  0
 50 51  1  0  0  0  0
 55 56  1  0  0  0  0
 56 57  1  0  0  0  0
 56 61  1  0  0  0  0
 57 58  1  0  0  0  0
 58 59  1  0  0  0  0
 58 71  1  0  0  0  0
 59 60  1  0  0  0  0
 60 61  1  0  0  0  0
 63 64  1  0  0  0  0
 64 65  1  0  0  0  0
 67 68  2  0  0  0  0
 67 72  1  0  0  0  0
 68 69  1  0  0  0  0
 69 70  2  0  0  0  0
 70 71  1  0  0  0  0
 71 72  2  0  0  0  0
 41 42  3  0  0  0  0
  1 74  1  0  0  0  0
  1 75  1  0  0  0  0
  1 76  1  0  0  0  0
  2 77  1  0  0  0  0
  4 78  1  0  0  0  0
  4 79  1  0  0  0  0
  4 80  1  0  0  0  0
  7 81  1  0  0  0  0
  8 82  1  0  0  0  0
  9 83  1  0  0  0  0
 13 84  1  0  0  0  0
 13 85  1  0  0  0  0
 14 86  1  0  0  0  0
 14 87  1  0  0  0  0
 14 88  1  0  0  0  0
 16 89  1  0  0  0  0
 16 90  1  0  0  0  0
 18 91  1  0  0  0  0
 18 92  1  0  0  0  0
 18 93  1  0  0  0  0
 19 94  1  0  0  0  0
 19 95  1  0  0  0  0
 19 96  1  0  0  0  0
 20 97  1  0  0  0  0
 20 98  1  0  0  0  0
 23 99  1  0  0  0  0
 24100  1  0  0  0  0
 27101  1  0  0  0  0
 28102  1  0  0  0  0
 30103  1  0  0  0  0
 31104  1  0  0  0  0
 32105  1  0  0  0  0
 32106  1  0  0  0  0
 32107  1  0  0  0  0
 33108  1  0  0  0  0
 33109  1  0  0  0  0
 33110  1  0  0  0  0
 37111  1  0  0  0  0
 37112  1  0  0  0  0
 38113  1  0  0  0  0
 38114  1  0  0  0  0
 45115  1  0  0  0  0
 45116  1  0  0  0  0
 45117  1  0  0  0  0
 46118  1  0  0  0  0
 46119  1  0  0  0  0
 46120  1  0  0  0  0
 47121  1  0  0  0  0
 47122  1  0  0  0  0
 47123  1  0  0  0  0
 48124  1  0  0  0  0
 48125  1  0  0  0  0
 48126  1  0  0  0  0
 50127  1  0  0  0  0
 50128  1  0  0  0  0
 51129  1  0  0  0  0
 51130  1  0  0  0  0
 53131  1  0  0  0  0
 53132  1  0  0  0  0
 53133  1  0  0  0  0
 55134  1  0  0  0  0
 55135  1  0  0  0  0
 56136  1  0  0  0  0
 57137  1  0  0  0  0
 57138  1  0  0  0  0
 59139  1  0  0  0  0
 59140  1  0  0  0  0
 60141  1  0  0  0  0
 60142  1  0  0  0  0
 63143  1  0  0  0  0
 63144  1  0  0  0  0
 64145  1  0  0  0  0
 64146  1  0  0  0  0
 65147  1  0  0  0  0
 65148  1  0  0  0  0
 69149  1  0  0  0  0
 70150  1  0  0  0  0
 72151  1  0  0  0  0
M  END
$$$$
