mol_bioactive_43
     RDKit          3D

151157  0  0  0  0  0  0  0  0999 V2000
    0.1261    1.7490   -9.8803 C   0  0  0  0  0  0  0  0  0  0  0  0
   -0.4337    1.7885   -8.4568 C   0  0  2  0  0  0  0  0  0  0  0  0
   -1.8124    2.1958   -8.5062 O   0  0  0  0  0  0  0  0  0  0  0  0
   -2.7086    1.1135   -8.7182 C   0  0  0  0  0  0  0  0  0  0  0  0
    0.3450    2.7761   -7.5915 C   0  0  0  0  0  0  0  0  0  0  0  0
    0.4781    4.0372   -8.1014 N   0  0  0  0  0  0  0  0  0  0  0  0
    1.1347    4.9589   -7.3654 C   0  0  0  0  0  0  0  0  0  0  0  0
    1.6923    4.6986   -6.1301 C   0  0  0  0  0  0  0  0  0  0  0  0
    1.5710    3.4107   -5.6204 C   0  0  0  0  0  0  0  0  0  0  0  0
    0.8865    2.4216   -6.3417 C   0  0  0  0  0  0  0  0  0  0  0  0
    0.8284    1.0721   -5.7591 C   0  0  0  0  0  0  0  0  0  0  0  0
    1.6527    0.0364   -6.1835 N   0  0  0  0  0  0  0  0  0  0  0  0
    2.6722    0.1248   -7.2231 C   0  0  0  0  0  0  0  0  0  0  0  0
    4.0551    0.4177   -6.6631 C   0  0  0  0  0  0  0  0  0  0  0  0
    0.1543    0.6243   -4.6217 C   0  0  0  0  0  0  0  0  0  0  0  0
   -0.7112    1.3959   -3.6488 C   0  0  0  0  0  0  0  0  0  0  0  0
   -2.2156    1.6026   -3.9810 C   0  0  0  0  0  0  0  0  0  0  0  0
   -2.3602    2.6835   -5.0668 C   0  0  0  0  0  0  0  0  0  0  0  0
   -2.9026    2.1473   -2.7105 C   0  0  0  0  0  0  0  0  0  0  0  0
   -2.9275    0.3206   -4.4795 C   0  0  0  0  0  0  0  0  0  0  0  0
   -3.3352   -0.5801   -3.4219 O   0  0  0  0  0  0  0  0  0  0  0  0
   -4.6908   -0.6661   -3.2194 C   0  0  0  0  0  0  0  0  0  0  0  0
   -5.0431   -1.8494   -2.3039 C   0  0  1  0  0  0  0  0  0  0  0  0
   -4.5191   -1.6181   -0.9430 N   0  0  0  0  0  0  0  0  0  0  0  0
   -4.8708   -2.7025   -0.0598 N   0  0  0  0  0  0  0  0  0  0  0  0
   -4.0244   -3.1097    0.9875 C   0  0  0  0  0  0  0  0  0  0  0  0
   -2.5314   -3.2279    0.6450 C   0  0  1  0  0  0  0  0  0  0  0  0
   -1.7158   -2.9141    1.8083 N   0  0  0  0  0  0  0  0  0  0  0  0
   -1.0693   -1.7039    1.9244 C   0  0  0  0  0  0  0  0  0  0  0  0
   -0.2656   -1.5020    3.2340 C   0  0  2  0  0  0  0  0  0  0  0  0
   -1.1434   -1.0314    4.4281 C   0  0  0  0  0  0  0  0  0  0  0  0
   -1.7814   -2.2184    5.1619 C   0  0  0  0  0  0  0  0  0  0  0  0
   -2.2486   -0.0331    4.0598 C   0  0  0  0  0  0  0  0  0  0  0  0
    0.9135   -0.6417    2.9241 N   0  0  0  0  0  0  0  0  0  0  0  0
    1.9615   -1.2723    2.2379 C   0  0  0  0  0  0  0  0  0  0  0  0
    3.0705   -0.4329    1.5566 C   0  0  0  0  0  0  0  0  0  0  0  0
    2.5043    0.3199    0.3365 C   0  0  0  0  0  0  0  0  0  0  0  0
    3.6171    1.0269   -0.4284 C   0  0  0  0  0  0  0  0  0  0  0  0
    4.6387    0.0621   -0.7974 N   0  0  0  0  0  0  0  0  0  0  0  0
    4.5603   -0.5087   -2.0662 C   0  0  0  0  0  0  0  0  0  0  0  0
    5.3312   -1.7004   -2.3361 C   0  0  0  0  0  0  0  0  0  0  0  0
    5.9383   -2.7106   -2.5789 C   0  0  0  0  0  0  0  0  0  0  0  0
    6.6637   -3.9596   -2.9137 C   0  0  0  0  0  0  0  0  0  0  0  0
    7.8766   -3.5833   -3.6797 N   0  0  0  0  0  0  0  0  0  0  0  0
    8.4415   -4.6496   -4.5032 C   0  0  0  0  0  0  0  0  0  0  0  0
    8.9347   -2.9769   -2.8700 C   0  0  0  0  0  0  0  0  0  0  0  0
    5.6813   -4.8225   -3.7438 C   0  0  0  0  0  0  0  0  0  0  0  0
    6.9662   -4.7245   -1.6082 C   0  0  0  0  0  0  0  0  0  0  0  0
    3.8294   -0.0896   -2.9518 O   0  0  0  0  0  0  0  0  0  0  0  0
    5.2797   -0.5866    0.3411 C   0  0  0  0  0  0  0  0  0  0  0  0
    4.2344   -1.3587    1.1338 C   0  0  0  0  0  0  0  0  0  0  0  0
    1.9845   -2.5053    2.1310 O   0  0  0  0  0  0  0  0  0  0  0  0
    0.7805    0.8067    3.0443 C   0  0  0  0  0  0  0  0  0  0  0  0
   -1.1351   -0.8448    1.0421 O   0  0  0  0  0  0  0  0  0  0  0  0
   -2.2595   -4.6506    0.1048 C   0  0  0  0  0  0  0  0  0  0  0  0
   -0.9228   -4.8296   -0.6374 C   0  0  1  0  0  0  0  0  0  0  0  0
   -0.6986   -3.7328   -1.6918 C   0  0  0  0  0  0  0  0  0  0  0  0
    0.5831   -3.9214   -2.3903 N   0  0  0  0  0  0  0  0  0  0  0  0
    1.6992   -3.9614   -1.4056 C   0  0  0  0  0  0  0  0  0  0  0  0
    1.4162   -5.0450   -0.3482 C   0  0  0  0  0  0  0  0  0  0  0  0
    0.1543   -4.8478    0.3178 O   0  0  0  0  0  0  0  0  0  0  0  0
   -4.4489   -3.5032    2.0799 O   0  0  0  0  0  0  0  0  0  0  0  0
   -6.3173   -2.8532    0.1222 C   0  0  0  0  0  0  0  0  0  0  0  0
   -6.9799   -3.0961   -1.2307 C   0  0  0  0  0  0  0  0  0  0  0  0
   -6.5726   -2.0206   -2.2359 C   0  0  0  0  0  0  0  0  0  0  0  0
   -5.5208    0.0749   -3.7328 O   0  0  0  0  0  0  0  0  0  0  0  0
    0.5455   -0.7427   -4.4227 C   0  0  0  0  0  0  0  0  0  0  0  0
    1.4657   -1.0885   -5.4039 C   0  0  0  0  0  0  0  0  0  0  0  0
    2.0748   -2.3542   -5.4309 C   0  0  0  0  0  0  0  0  0  0  0  0
    1.7501   -3.2689   -4.4167 C   0  0  0  0  0  0  0  0  0  0  0  0
    0.8396   -2.9624   -3.4024 C   0  0  0  0  0  0  0  0  0  0  0  0
    0.2294   -1.6967   -3.4312 C   0  0  0  0  0  0  0  0  0  0  0  0
    3.6111    0.4873    2.4207 F   0  0  0  0  0  0  0  0  0  0  0  0
    1.1974    1.5204   -9.8878 H   0  0  0  0  0  0  0  0  0  0  0  0
   -0.3882    0.9884  -10.4785 H   0  0  0  0  0  0  0  0  0  0  0  0
   -0.0272    2.7037  -10.3982 H   0  0  0  0  0  0  0  0  0  0  0  0
   -0.3659    0.7814   -8.0363 H   0  0  0  0  0  0  0  0  0  0  0  0
   -2.6183    0.3748   -7.9171 H   0  0  0  0  0  0  0  0  0  0  0  0
   -3.7281    1.5100   -8.7096 H   0  0  0  0  0  0  0  0  0  0  0  0
   -2.5301    0.6432   -9.6893 H   0  0  0  0  0  0  0  0  0  0  0  0
    1.2035    5.9463   -7.8142 H   0  0  0  0  0  0  0  0  0  0  0  0
    2.2166    5.4700   -5.5797 H   0  0  0  0  0  0  0  0  0  0  0  0
    2.0196    3.1712   -4.6573 H   0  0  0  0  0  0  0  0  0  0  0  0
    2.6670   -0.8200   -7.7818 H   0  0  0  0  0  0  0  0  0  0  0  0
    2.3871    0.9048   -7.9298 H   0  0  0  0  0  0  0  0  0  0  0  0
    4.4411   -0.4389   -6.1015 H   0  0  0  0  0  0  0  0  0  0  0  0
    4.7518    0.6357   -7.4768 H   0  0  0  0  0  0  0  0  0  0  0  0
    4.0348    1.2764   -5.9868 H   0  0  0  0  0  0  0  0  0  0  0  0
   -0.6409    0.8960   -2.6728 H   0  0  0  0  0  0  0  0  0  0  0  0
   -0.2441    2.3771   -3.4820 H   0  0  0  0  0  0  0  0  0  0  0  0
   -1.8184    3.5969   -4.8012 H   0  0  0  0  0  0  0  0  0  0  0  0
   -1.9830    2.3211   -6.0204 H   0  0  0  0  0  0  0  0  0  0  0  0
   -3.4115    2.9552   -5.2185 H   0  0  0  0  0  0  0  0  0  0  0  0
   -2.8082    1.4479   -1.8719 H   0  0  0  0  0  0  0  0  0  0  0  0
   -2.4500    3.0950   -2.3997 H   0  0  0  0  0  0  0  0  0  0  0  0
   -3.9687    2.3285   -2.8832 H   0  0  0  0  0  0  0  0  0  0  0  0
   -3.7851    0.5949   -5.1058 H   0  0  0  0  0  0  0  0  0  0  0  0
   -2.2785   -0.2567   -5.1452 H   0  0  0  0  0  0  0  0  0  0  0  0
   -4.5957   -2.7491   -2.7426 H   0  0  0  0  0  0  0  0  0  0  0  0
   -3.5211   -1.4201   -0.9787 H   0  0  0  0  0  0  0  0  0  0  0  0
   -2.3040   -2.5000   -0.1239 H   0  0  0  0  0  0  0  0  0  0  0  0
   -1.7390   -3.5582    2.5925 H   0  0  0  0  0  0  0  0  0  0  0  0
    0.1402   -2.4857    3.5092 H   0  0  0  0  0  0  0  0  0  0  0  0
   -0.4861   -0.5542    5.1651 H   0  0  0  0  0  0  0  0  0  0  0  0
   -2.2878   -1.8738    6.0712 H   0  0  0  0  0  0  0  0  0  0  0  0
   -2.5253   -2.7304    4.5432 H   0  0  0  0  0  0  0  0  0  0  0  0
   -1.0235   -2.9481    5.4645 H   0  0  0  0  0  0  0  0  0  0  0  0
   -2.7368    0.3444    4.9684 H   0  0  0  0  0  0  0  0  0  0  0  0
   -1.8633    0.8329    3.5179 H   0  0  0  0  0  0  0  0  0  0  0  0
   -3.0223   -0.5029    3.4429 H   0  0  0  0  0  0  0  0  0  0  0  0
    1.9863   -0.3880   -0.3278 H   0  0  0  0  0  0  0  0  0  0  0  0
    1.7663    1.0705    0.6334 H   0  0  0  0  0  0  0  0  0  0  0  0
    3.2077    1.5279   -1.3121 H   0  0  0  0  0  0  0  0  0  0  0  0
    4.0845    1.7999    0.1958 H   0  0  0  0  0  0  0  0  0  0  0  0
    8.7173   -5.5296   -3.9157 H   0  0  0  0  0  0  0  0  0  0  0  0
    7.7448   -4.9500   -5.2930 H   0  0  0  0  0  0  0  0  0  0  0  0
    9.3388   -4.2986   -5.0282 H   0  0  0  0  0  0  0  0  0  0  0  0
    9.4331   -3.7073   -2.2254 H   0  0  0  0  0  0  0  0  0  0  0  0
    9.6998   -2.5380   -3.5205 H   0  0  0  0  0  0  0  0  0  0  0  0
    8.5585   -2.1590   -2.2468 H   0  0  0  0  0  0  0  0  0  0  0  0
    4.7370   -4.9720   -3.2052 H   0  0  0  0  0  0  0  0  0  0  0  0
    5.4288   -4.3327   -4.6950 H   0  0  0  0  0  0  0  0  0  0  0  0
    6.0902   -5.8162   -3.9554 H   0  0  0  0  0  0  0  0  0  0  0  0
    7.5129   -4.1095   -0.8844 H   0  0  0  0  0  0  0  0  0  0  0  0
    6.0392   -5.0352   -1.1087 H   0  0  0  0  0  0  0  0  0  0  0  0
    7.5520   -5.6299   -1.7978 H   0  0  0  0  0  0  0  0  0  0  0  0
    6.0833   -1.2524    0.0162 H   0  0  0  0  0  0  0  0  0  0  0  0
    5.7360    0.1943    0.9615 H   0  0  0  0  0  0  0  0  0  0  0  0
    4.7080   -1.7918    2.0229 H   0  0  0  0  0  0  0  0  0  0  0  0
    3.8607   -2.1883    0.5198 H   0  0  0  0  0  0  0  0  0  0  0  0
    0.4618    1.0684    4.0554 H   0  0  0  0  0  0  0  0  0  0  0  0
    1.7202    1.3304    2.8710 H   0  0  0  0  0  0  0  0  0  0  0  0
    0.0486    1.1619    2.3160 H   0  0  0  0  0  0  0  0  0  0  0  0
   -2.3054   -5.3634    0.9391 H   0  0  0  0  0  0  0  0  0  0  0  0
   -3.0623   -4.9172   -0.5932 H   0  0  0  0  0  0  0  0  0  0  0  0
   -0.9409   -5.8135   -1.1265 H   0  0  0  0  0  0  0  0  0  0  0  0
   -1.5298   -3.7351   -2.4076 H   0  0  0  0  0  0  0  0  0  0  0  0
   -0.6549   -2.7732   -1.1737 H   0  0  0  0  0  0  0  0  0  0  0  0
    2.6536   -4.1820   -1.8951 H   0  0  0  0  0  0  0  0  0  0  0  0
    1.7810   -2.9872   -0.9030 H   0  0  0  0  0  0  0  0  0  0  0  0
    1.4168   -6.0409   -0.8065 H   0  0  0  0  0  0  0  0  0  0  0  0
    2.1989   -5.0285    0.4165 H   0  0  0  0  0  0  0  0  0  0  0  0
   -6.5290   -3.6939    0.7941 H   0  0  0  0  0  0  0  0  0  0  0  0
   -6.7006   -1.9391    0.5969 H   0  0  0  0  0  0  0  0  0  0  0  0
   -6.6712   -4.0752   -1.6159 H   0  0  0  0  0  0  0  0  0  0  0  0
   -8.0702   -3.1177   -1.1208 H   0  0  0  0  0  0  0  0  0  0  0  0
   -7.0473   -1.0723   -1.9485 H   0  0  0  0  0  0  0  0  0  0  0  0
   -6.9651   -2.2777   -3.2280 H   0  0  0  0  0  0  0  0  0  0  0  0
    2.8109   -2.6172   -6.1829 H   0  0  0  0  0  0  0  0  0  0  0  0
    2.2272   -4.2448   -4.4250 H   0  0  0  0  0  0  0  0  0  0  0  0
   -0.4692   -1.3858   -2.6654 H   0  0  0  0  0  0  0  0  0  0  0  0
  1  2  1  0
  2  3  1  0
  2  5  1  0
  3  4  1  0
  5  6  2  0
  5 10  1  0
  6  7  1  0
  7  8  2  0
  8  9  1  0
  9 10  2  0
 10 11  1  0
 11 12  1  0
 11 15  2  0
 12 13  1  0
 12 68  1  0
 13 14  1  0
 15 16  1  0
 15 67  1  0
 16 17  1  0
 17 18  1  0
 17 19  1  0
 17 20  1  0
 20 21  1  0
 21 22  1  0
 22 23  1  0
 22 66  2  0
 23 24  1  0
 23 65  1  0
 24 25  1  0
 25 26  1  0
 25 63  1  0
 26 27  1  0
 26 62  2  0
 27 28  1  0
 27 55  1  0
 28 29  1  0
 29 30  1  0
 29 54  2  0
 30 31  1  0
 30 34  1  0
 31 32  1  0
 31 33  1  0
 34 35  1  0
 34 53  1  0
 35 36  1  0
 35 52  2  0
 36 37  1  0
 36 51  1  0
 36 73  1  0
 37 38  1  0
 38 39  1  0
 39 40  1  0
 39 50  1  0
 40 41  1  0
 40 49  2  0
 42 43  1  0
 43 44  1  0
 43 47  1  0
 43 48  1  0
 44 45  1  0
 44 46  1  0
 50 51  1  0
 55 56  1  0
 56 57  1  0
 56 61  1  0
 57 58  1  0
 58 59  1  0
 58 71  1  0
 59 60  1  0
 60 61  1  0
 63 64  1  0
 64 65  1  0
 67 68  2  0
 67 72  1  0
 68 69  1  0
 69 70  2  0
 70 71  1  0
 71 72  2  0
 41 42  3  0
  1 74  1  0
  1 75  1  0
  1 76  1  0
  2 77  1  1
  4 78  1  0
  4 79  1  0
  4 80  1  0
  7 81  1  0
  8 82  1  0
  9 83  1  0
 13 84  1  0
 13 85  1  0
 14 86  1  0
 14 87  1  0
 14 88  1  0
 16 89  1  0
 16 90  1  0
 18 91  1  0
 18 92  1  0
 18 93  1  0
 19 94  1  0
 19 95  1  0
 19 96  1  0
 20 97  1  0
 20 98  1  0
 23 99  1  6
 24100  1  0
 27101  1  6
 28102  1  0
 30103  1  1
 31104  1  0
 32105  1  0
 32106  1  0
 32107  1  0
 33108  1  0
 33109  1  0
 33110  1  0
 37111  1  0
 37112  1  0
 38113  1  0
 38114  1  0
 45115  1  0
 45116  1  0
 45117  1  0
 46118  1  0
 46119  1  0
 46120  1  0
 47121  1  0
 47122  1  0
 47123  1  0
 48124  1  0
 48125  1  0
 48126  1  0
 50127  1  0
 50128  1  0
 51129  1  0
 51130  1  0
 53131  1  0
 53132  1  0
 53133  1  0
 55134  1  0
 55135  1  0
 56136  1  6
 57137  1  0
 57138  1  0
 59139  1  0
 59140  1  0
 60141  1  0
 60142  1  0
 63143  1  0
 63144  1  0
 64145  1  0
 64146  1  0
 65147  1  0
 65148  1  0
 69149  1  0
 70150  1  0
 72151  1  0
M  END
$$$$
