 energy: -221.281145124057 gnorm: 0.000520268218 xtb: 6.7.1 (edcfbbe)
          08182500283D

151157  0     0  0            999 V2000
    1.8273    7.1074   -7.5859 C   0  0  0  0  0  0  0  0  0  0  0  0
    1.9313    5.6153   -7.2655 C   0  0  0  0  0  0  0  0  0  0  0  0
    3.0217    4.9889   -7.9250 O   0  0  0  0  0  0  0  0  0  0  0  0
    4.2834    5.2996   -7.3941 C   0  0  0  0  0  0  0  0  0  0  0  0
    0.6842    4.8894   -7.7296 C   0  0  0  0  0  0  0  0  0  0  0  0
    0.1959    5.2643   -8.9005 N   0  0  0  0  0  0  0  0  0  0  0  0
   -0.8896    4.6812   -9.3697 C   0  0  0  0  0  0  0  0  0  0  0  0
   -1.5729    3.6898   -8.6820 C   0  0  0  0  0  0  0  0  0  0  0  0
   -1.0743    3.2944   -7.4544 C   0  0  0  0  0  0  0  0  0  0  0  0
    0.0869    3.8850   -6.9564 C   0  0  0  0  0  0  0  0  0  0  0  0
    0.6132    3.4760   -5.6489 C   0  0  0  0  0  0  0  0  0  0  0  0
   -0.0710    3.7930   -4.4950 N   0  0  0  0  0  0  0  0  0  0  0  0
   -1.2160    4.6585   -4.4009 C   0  0  0  0  0  0  0  0  0  0  0  0
   -0.8041    6.1212   -4.2363 C   0  0  0  0  0  0  0  0  0  0  0  0
    1.7459    2.7550   -5.3489 C   0  0  0  0  0  0  0  0  0  0  0  0
    2.7179    2.1944   -6.3363 C   0  0  0  0  0  0  0  0  0  0  0  0
    2.4460    0.7383   -6.7821 C   0  0  0  0  0  0  0  0  0  0  0  0
    3.3104    0.4354   -8.0084 C   0  0  0  0  0  0  0  0  0  0  0  0
    0.9739    0.5366   -7.1377 C   0  0  0  0  0  0  0  0  0  0  0  0
    2.8018   -0.2425   -5.6602 C   0  0  0  0  0  0  0  0  0  0  0  0
    4.2113   -0.1987   -5.4119 O   0  0  0  0  0  0  0  0  0  0  0  0
    4.6506   -0.8665   -4.3568 C   0  0  0  0  0  0  0  0  0  0  0  0
    6.1516   -0.7056   -4.1621 C   0  0  0  0  0  0  0  0  0  0  0  0
    6.7051   -1.8608   -3.4767 N   0  0  0  0  0  0  0  0  0  0  0  0
    7.9740   -1.5458   -2.9865 N   0  0  0  0  0  0  0  0  0  0  0  0
    8.2340   -0.9360   -1.8071 C   0  0  0  0  0  0  0  0  0  0  0  0
    7.0369   -0.7695   -0.8493 C   0  0  0  0  0  0  0  0  0  0  0  0
    7.1320   -1.7338    0.2231 N   0  0  0  0  0  0  0  0  0  0  0  0
    6.6022   -2.9580    0.0918 C   0  0  0  0  0  0  0  0  0  0  0  0
    6.6536   -3.7772    1.3830 C   0  0  0  0  0  0  0  0  0  0  0  0
    6.7048   -5.2878    1.1170 C   0  0  0  0  0  0  0  0  0  0  0  0
    6.5228   -6.0691    2.4149 C   0  0  0  0  0  0  0  0  0  0  0  0
    8.0485   -5.6203    0.4713 C   0  0  0  0  0  0  0  0  0  0  0  0
    5.5049   -3.3656    2.1888 N   0  0  0  0  0  0  0  0  0  0  0  0
    5.7598   -2.6077    3.2700 C   0  0  0  0  0  0  0  0  0  0  0  0
    4.6209   -2.2509    4.2409 C   0  0  0  0  0  0  0  0  0  0  0  0
    4.4578   -3.4107    5.2313 C   0  0  0  0  0  0  0  0  0  0  0  0
    3.4305   -3.0483    6.3053 C   0  0  0  0  0  0  0  0  0  0  0  0
    3.7967   -1.8135    6.9547 N   0  0  0  0  0  0  0  0  0  0  0  0
    4.1247   -1.8091    8.2708 C   0  0  0  0  0  0  0  0  0  0  0  0
    4.5103   -0.5239    8.8038 C   0  0  0  0  0  0  0  0  0  0  0  0
    4.8595    0.4576    9.4066 C   0  0  0  0  0  0  0  0  0  0  0  0
    5.1719    1.6811   10.1396 C   0  0  0  0  0  0  0  0  0  0  0  0
    6.3230    2.3444    9.5179 N   0  0  0  0  0  0  0  0  0  0  0  0
    6.2392    2.4920    8.0819 C   0  0  0  0  0  0  0  0  0  0  0  0
    6.7137    3.5920   10.1362 C   0  0  0  0  0  0  0  0  0  0  0  0
    3.8817    2.5303   10.1640 C   0  0  0  0  0  0  0  0  0  0  0  0
    5.5359    1.2462   11.5699 C   0  0  0  0  0  0  0  0  0  0  0  0
    4.0702   -2.8012    8.9740 O   0  0  0  0  0  0  0  0  0  0  0  0
    3.9056   -0.6853    6.0662 C   0  0  0  0  0  0  0  0  0  0  0  0
    4.9555   -0.9570    4.9867 C   0  0  0  0  0  0  0  0  0  0  0  0
    6.8952   -2.2813    3.5855 O   0  0  0  0  0  0  0  0  0  0  0  0
    4.1953   -3.5999    1.6173 C   0  0  0  0  0  0  0  0  0  0  0  0
    6.0771   -3.3514   -0.9349 O   0  0  0  0  0  0  0  0  0  0  0  0
    6.9958    0.6626   -0.3148 C   0  0  0  0  0  0  0  0  0  0  0  0
    5.5836    1.1046    0.0791 C   0  0  0  0  0  0  0  0  0  0  0  0
    4.6632    1.2600   -1.1434 C   0  0  0  0  0  0  0  0  0  0  0  0
    3.3489    1.6716   -0.6989 N   0  0  0  0  0  0  0  0  0  0  0  0
    2.8150    0.6785    0.2182 C   0  0  0  0  0  0  0  0  0  0  0  0
    3.7615    0.5574    1.4100 C   0  0  0  0  0  0  0  0  0  0  0  0
    5.0536    0.1722    1.0004 O   0  0  0  0  0  0  0  0  0  0  0  0
    9.3546   -0.5802   -1.4921 O   0  0  0  0  0  0  0  0  0  0  0  0
    8.9096   -1.4597   -4.0927 C   0  0  0  0  0  0  0  0  0  0  0  0
    8.4494   -0.3505   -5.0480 C   0  0  0  0  0  0  0  0  0  0  0  0
    6.9796   -0.5395   -5.4402 C   0  0  0  0  0  0  0  0  0  0  0  0
    3.9501   -1.4727   -3.5873 O   0  0  0  0  0  0  0  0  0  0  0  0
    1.7914    2.6543   -3.9248 C   0  0  0  0  0  0  0  0  0  0  0  0
    0.6474    3.3218   -3.4297 C   0  0  0  0  0  0  0  0  0  0  0  0
    0.4080    3.4186   -2.0640 C   0  0  0  0  0  0  0  0  0  0  0  0
    1.3140    2.8437   -1.2063 C   0  0  0  0  0  0  0  0  0  0  0  0
    2.4607    2.1701   -1.6707 C   0  0  0  0  0  0  0  0  0  0  0  0
    2.7004    2.0830   -3.0313 C   0  0  0  0  0  0  0  0  0  0  0  0
    3.4019   -2.0501    3.5970 F   0  0  0  0  0  0  0  0  0  0  0  0
    0.9299    7.5189   -7.1311 H   0  0  0  0  0  0  0  0  0  0  0  0
    2.6902    7.6460   -7.2030 H   0  0  0  0  0  0  0  0  0  0  0  0
    1.7648    7.2334   -8.6624 H   0  0  0  0  0  0  0  0  0  0  0  0
    2.0476    5.4728   -6.1768 H   0  0  0  0  0  0  0  0  0  0  0  0
    4.3125    5.1154   -6.3124 H   0  0  0  0  0  0  0  0  0  0  0  0
    4.9921    4.6403   -7.8925 H   0  0  0  0  0  0  0  0  0  0  0  0
    4.5681    6.3394   -7.5860 H   0  0  0  0  0  0  0  0  0  0  0  0
   -1.2287    5.0343  -10.3347 H   0  0  0  0  0  0  0  0  0  0  0  0
   -2.4650    3.2425   -9.0920 H   0  0  0  0  0  0  0  0  0  0  0  0
   -1.5691    2.5222   -6.8814 H   0  0  0  0  0  0  0  0  0  0  0  0
   -1.8205    4.5467   -5.3048 H   0  0  0  0  0  0  0  0  0  0  0  0
   -1.8157    4.3400   -3.5438 H   0  0  0  0  0  0  0  0  0  0  0  0
   -0.1775    6.2385   -3.3553 H   0  0  0  0  0  0  0  0  0  0  0  0
   -0.2435    6.4519   -5.1078 H   0  0  0  0  0  0  0  0  0  0  0  0
   -1.6845    6.7489   -4.1284 H   0  0  0  0  0  0  0  0  0  0  0  0
    2.7029    2.8226   -7.2283 H   0  0  0  0  0  0  0  0  0  0  0  0
    3.7235    2.2310   -5.9116 H   0  0  0  0  0  0  0  0  0  0  0  0
    4.3617    0.5837   -7.7779 H   0  0  0  0  0  0  0  0  0  0  0  0
    3.1705   -0.5950   -8.3282 H   0  0  0  0  0  0  0  0  0  0  0  0
    3.0379    1.0932   -8.8299 H   0  0  0  0  0  0  0  0  0  0  0  0
    0.3434    0.6924   -6.2657 H   0  0  0  0  0  0  0  0  0  0  0  0
    0.6805    1.2402   -7.9122 H   0  0  0  0  0  0  0  0  0  0  0  0
    0.8071   -0.4730   -7.5068 H   0  0  0  0  0  0  0  0  0  0  0  0
    2.2672    0.0046   -4.7374 H   0  0  0  0  0  0  0  0  0  0  0  0
    2.5363   -1.2670   -5.9434 H   0  0  0  0  0  0  0  0  0  0  0  0
    6.2642    0.2189   -3.5557 H   0  0  0  0  0  0  0  0  0  0  0  0
    6.1068   -2.3062   -2.7831 H   0  0  0  0  0  0  0  0  0  0  0  0
    6.1039   -0.9972   -1.3695 H   0  0  0  0  0  0  0  0  0  0  0  0
    7.5394   -1.4413    1.0979 H   0  0  0  0  0  0  0  0  0  0  0  0
    7.5401   -3.4938    1.9593 H   0  0  0  0  0  0  0  0  0  0  0  0
    5.9154   -5.5591    0.4100 H   0  0  0  0  0  0  0  0  0  0  0  0
    5.5334   -5.9091    2.8355 H   0  0  0  0  0  0  0  0  0  0  0  0
    6.6472   -7.1333    2.2311 H   0  0  0  0  0  0  0  0  0  0  0  0
    7.2626   -5.7568    3.1491 H   0  0  0  0  0  0  0  0  0  0  0  0
    8.1017   -6.6818    0.2425 H   0  0  0  0  0  0  0  0  0  0  0  0
    8.1731   -5.0637   -0.4540 H   0  0  0  0  0  0  0  0  0  0  0  0
    8.8679   -5.3704    1.1421 H   0  0  0  0  0  0  0  0  0  0  0  0
    4.1362   -4.3098    4.7037 H   0  0  0  0  0  0  0  0  0  0  0  0
    5.4287   -3.6026    5.6896 H   0  0  0  0  0  0  0  0  0  0  0  0
    2.4430   -2.9314    5.8431 H   0  0  0  0  0  0  0  0  0  0  0  0
    3.3834   -3.8268    7.0692 H   0  0  0  0  0  0  0  0  0  0  0  0
    5.4776    3.2194    7.7573 H   0  0  0  0  0  0  0  0  0  0  0  0
    7.2079    2.8335    7.7173 H   0  0  0  0  0  0  0  0  0  0  0  0
    6.0232    1.5276    7.6271 H   0  0  0  0  0  0  0  0  0  0  0  0
    6.8030    3.4701   11.2117 H   0  0  0  0  0  0  0  0  0  0  0  0
    7.6936    3.8689    9.7458 H   0  0  0  0  0  0  0  0  0  0  0  0
    6.0190    4.4201    9.9255 H   0  0  0  0  0  0  0  0  0  0  0  0
    3.0679    1.9445   10.5835 H   0  0  0  0  0  0  0  0  0  0  0  0
    4.0252    3.4166   10.7772 H   0  0  0  0  0  0  0  0  0  0  0  0
    3.6024    2.8345    9.1575 H   0  0  0  0  0  0  0  0  0  0  0  0
    5.4981    2.0850   12.2600 H   0  0  0  0  0  0  0  0  0  0  0  0
    4.8319    0.4910   11.9110 H   0  0  0  0  0  0  0  0  0  0  0  0
    6.5353    0.8196   11.5756 H   0  0  0  0  0  0  0  0  0  0  0  0
    2.9318   -0.5180    5.5880 H   0  0  0  0  0  0  0  0  0  0  0  0
    4.1718    0.2032    6.6407 H   0  0  0  0  0  0  0  0  0  0  0  0
    5.9455   -1.0656    5.4285 H   0  0  0  0  0  0  0  0  0  0  0  0
    4.9838   -0.1326    4.2726 H   0  0  0  0  0  0  0  0  0  0  0  0
    3.5396   -4.1159    2.3187 H   0  0  0  0  0  0  0  0  0  0  0  0
    3.7267   -2.6611    1.3192 H   0  0  0  0  0  0  0  0  0  0  0  0
    4.3108   -4.2114    0.7274 H   0  0  0  0  0  0  0  0  0  0  0  0
    7.6554    0.7334    0.5509 H   0  0  0  0  0  0  0  0  0  0  0  0
    7.3758    1.3483   -1.0742 H   0  0  0  0  0  0  0  0  0  0  0  0
    5.6434    2.0923    0.5708 H   0  0  0  0  0  0  0  0  0  0  0  0
    5.0763    2.0340   -1.7940 H   0  0  0  0  0  0  0  0  0  0  0  0
    4.6079    0.3059   -1.6913 H   0  0  0  0  0  0  0  0  0  0  0  0
    1.8254    0.9767    0.5606 H   0  0  0  0  0  0  0  0  0  0  0  0
    2.7363   -0.3039   -0.2783 H   0  0  0  0  0  0  0  0  0  0  0  0
    3.8121    1.5262    1.9316 H   0  0  0  0  0  0  0  0  0  0  0  0
    3.4129   -0.2107    2.0998 H   0  0  0  0  0  0  0  0  0  0  0  0
    9.8987   -1.2458   -3.6884 H   0  0  0  0  0  0  0  0  0  0  0  0
    8.9114   -2.4255   -4.6018 H   0  0  0  0  0  0  0  0  0  0  0  0
    8.5696    0.6135   -4.5473 H   0  0  0  0  0  0  0  0  0  0  0  0
    9.0782   -0.3511   -5.9383 H   0  0  0  0  0  0  0  0  0  0  0  0
    6.8694   -1.4424   -6.0411 H   0  0  0  0  0  0  0  0  0  0  0  0
    6.6266    0.3139   -6.0186 H   0  0  0  0  0  0  0  0  0  0  0  0
   -0.4548    3.9399   -1.6769 H   0  0  0  0  0  0  0  0  0  0  0  0
    1.1611    2.9301   -0.1416 H   0  0  0  0  0  0  0  0  0  0  0  0
    3.5767    1.5857   -3.4147 H   0  0  0  0  0  0  0  0  0  0  0  0
  1  2  1  0  0  0  0
  2  3  1  0  0  0  0
  2  5  1  0  0  0  0
  3  4  1  0  0  0  0
  5  6  2  0  0  0  0
  5 10  1  0  0  0  0
  6  7  1  0  0  0  0
  7  8  2  0  0  0  0
  8  9  1  0  0  0  0
  9 10  2  0  0  0  0
 10 11  1  0  0  0  0
 11 12  1  0  0  0  0
 11 15  2  0  0  0  0
 12 13  1  0  0  0  0
 12 68  1  0  0  0  0
 13 14  1  0  0  0  0
 15 16  1  0  0  0  0
 15 67  1  0  0  0  0
 16 17  1  0  0  0  0
 17 18  1  0  0  0  0
 17 19  1  0  0  0  0
 17 20  1  0  0  0  0
 20 21  1  0  0  0  0
 21 22  1  0  0  0  0
 22 23  1  0  0  0  0
 22 66  2  0  0  0  0
 23 24  1  0  0  0  0
 23 65  1  0  0  0  0
 24 25  1  0  0  0  0
 25 26  1  0  0  0  0
 25 63  1  0  0  0  0
 26 27  1  0  0  0  0
 26 62  2  0  0  0  0
 27 28  1  0  0  0  0
 27 55  1  0  0  0  0
 28 29  1  0  0  0  0
 29 30  1  0  0  0  0
 29 54  2  0  0  0  0
 30 31  1  0  0  0  0
 30 34  1  0  0  0  0
 31 32  1  0  0  0  0
 31 33  1  0  0  0  0
 34 35  1  0  0  0  0
 34 53  1  0  0  0  0
 35 36  1  0  0  0  0
 35 52  2  0  0  0  0
 36 37  1  0  0  0  0
 36 51  1  0  0  0  0
 36 73  1  0  0  0  0
 37 38  1  0  0  0  0
 38 39  1  0  0  0  0
 39 40  1  0  0  0  0
 39 50  1  0  0  0  0
 40 41  1  0  0  0  0
 40 49  2  0  0  0  0
 42 43  1  0  0  0  0
 43 44  1  0  0  0  0
 43 47  1  0  0  0  0
 43 48  1  0  0  0  0
 44 45  1  0  0  0  0
 44 46  1  0  0  0  0
 50 51  1  0  0  0  0
 55 56  1  0  0  0  0
 56 57  1  0  0  0  0
 56 61  1  0  0  0  0
 57 58  1  0  0  0  0
 58 59  1  0  0  0  0
 58 71  1  0  0  0  0
 59 60  1  0  0  0  0
 60 61  1  0  0  0  0
 63 64  1  0  0  0  0
 64 65  1  0  0  0  0
 67 68  2  0  0  0  0
 67 72  1  0  0  0  0
 68 69  1  0  0  0  0
 69 70  2  0  0  0  0
 70 71  1  0  0  0  0
 71 72  2  0  0  0  0
  1 74  1  0  0  0  0
  1 75  1  0  0  0  0
  1 76  1  0  0  0  0
  2 77  1  0  0  0  0
  4 78  1  0  0  0  0
  4 79  1  0  0  0  0
  4 80  1  0  0  0  0
  7 81  1  0  0  0  0
  8 82  1  0  0  0  0
  9 83  1  0  0  0  0
 13 84  1  0  0  0  0
 13 85  1  0  0  0  0
 14 86  1  0  0  0  0
 14 87  1  0  0  0  0
 14 88  1  0  0  0  0
 16 89  1  0  0  0  0
 16 90  1  0  0  0  0
 18 91  1  0  0  0  0
 18 92  1  0  0  0  0
 18 93  1  0  0  0  0
 19 94  1  0  0  0  0
 19 95  1  0  0  0  0
 19 96  1  0  0  0  0
 20 97  1  0  0  0  0
 20 98  1  0  0  0  0
 23 99  1  0  0  0  0
 24100  1  0  0  0  0
 27101  1  0  0  0  0
 28102  1  0  0  0  0
 30103  1  0  0  0  0
 31104  1  0  0  0  0
 32105  1  0  0  0  0
 32106  1  0  0  0  0
 32107  1  0  0  0  0
 33108  1  0  0  0  0
 33109  1  0  0  0  0
 33110  1  0  0  0  0
 37111  1  0  0  0  0
 37112  1  0  0  0  0
 38113  1  0  0  0  0
 38114  1  0  0  0  0
 45115  1  0  0  0  0
 45116  1  0  0  0  0
 45117  1  0  0  0  0
 46118  1  0  0  0  0
 46119  1  0  0  0  0
 46120  1  0  0  0  0
 47121  1  0  0  0  0
 47122  1  0  0  0  0
 47123  1  0  0  0  0
 48124  1  0  0  0  0
 48125  1  0  0  0  0
 48126  1  0  0  0  0
 50127  1  0  0  0  0
 50128  1  0  0  0  0
 51129  1  0  0  0  0
 51130  1  0  0  0  0
 53131  1  0  0  0  0
 53132  1  0  0  0  0
 53133  1  0  0  0  0
 55134  1  0  0  0  0
 55135  1  0  0  0  0
 56136  1  0  0  0  0
 57137  1  0  0  0  0
 57138  1  0  0  0  0
 59139  1  0  0  0  0
 59140  1  0  0  0  0
 60141  1  0  0  0  0
 60142  1  0  0  0  0
 63143  1  0  0  0  0
 63144  1  0  0  0  0
 64145  1  0  0  0  0
 64146  1  0  0  0  0
 65147  1  0  0  0  0
 65148  1  0  0  0  0
 69149  1  0  0  0  0
 70150  1  0  0  0  0
 72151  1  0  0  0  0
 41 42  3  0  0  0  0
M  END
$$$$
