 energy: -221.263889917703 gnorm: 0.000359800712 xtb: 6.7.1 (edcfbbe)
          08182521533D

151157  0     0  0            999 V2000
    0.7780   14.8624  -13.1318 C   0  0  0  0  0  0  0  0  0  0  0  0
    0.3044   14.1253  -11.8812 C   0  0  0  0  0  0  0  0  0  0  0  0
   -0.4473   14.9681  -11.0190 O   0  0  0  0  0  0  0  0  0  0  0  0
   -1.8082   15.0700  -11.3485 C   0  0  0  0  0  0  0  0  0  0  0  0
    1.4724   13.5920  -11.0735 C   0  0  0  0  0  0  0  0  0  0  0  0
    2.6836   14.0007  -11.4093 N   0  0  0  0  0  0  0  0  0  0  0  0
    3.7281   13.5471  -10.7407 C   0  0  0  0  0  0  0  0  0  0  0  0
    3.6256   12.6434   -9.6959 C   0  0  0  0  0  0  0  0  0  0  0  0
    2.3605   12.2084   -9.3373 C   0  0  0  0  0  0  0  0  0  0  0  0
    1.2496   12.6894  -10.0236 C   0  0  0  0  0  0  0  0  0  0  0  0
   -0.1060   12.2212   -9.7012 C   0  0  0  0  0  0  0  0  0  0  0  0
   -0.5971   11.1042  -10.3446 N   0  0  0  0  0  0  0  0  0  0  0  0
    0.1392   10.2466  -11.2338 C   0  0  0  0  0  0  0  0  0  0  0  0
    0.7596    9.0620  -10.4937 C   0  0  0  0  0  0  0  0  0  0  0  0
   -1.0604   12.7457   -8.8642 C   0  0  0  0  0  0  0  0  0  0  0  0
   -1.0087   13.9702   -8.0064 C   0  0  0  0  0  0  0  0  0  0  0  0
   -0.0931   13.9379   -6.7504 C   0  0  0  0  0  0  0  0  0  0  0  0
   -0.7597   14.7445   -5.6314 C   0  0  0  0  0  0  0  0  0  0  0  0
    1.2514   14.5968   -7.0776 C   0  0  0  0  0  0  0  0  0  0  0  0
    0.1911   12.5070   -6.2536 C   0  0  0  0  0  0  0  0  0  0  0  0
   -0.7466   12.0547   -5.2709 O   0  0  0  0  0  0  0  0  0  0  0  0
   -1.2712   10.8484   -5.4090 C   0  0  0  0  0  0  0  0  0  0  0  0
   -2.0936   10.4639   -4.1805 C   0  0  0  0  0  0  0  0  0  0  0  0
   -2.3036    9.0239   -4.2273 N   0  0  0  0  0  0  0  0  0  0  0  0
   -3.1276    8.5650   -3.1948 N   0  0  0  0  0  0  0  0  0  0  0  0
   -4.3900    8.1173   -3.2908 C   0  0  0  0  0  0  0  0  0  0  0  0
   -5.0762    8.2544   -4.6537 C   0  0  0  0  0  0  0  0  0  0  0  0
   -6.1424    7.2869   -4.7267 N   0  0  0  0  0  0  0  0  0  0  0  0
   -6.2708    6.4557   -5.7783 C   0  0  0  0  0  0  0  0  0  0  0  0
   -7.3982    5.4305   -5.6266 C   0  0  0  0  0  0  0  0  0  0  0  0
   -6.8660    4.0879   -5.0833 C   0  0  0  0  0  0  0  0  0  0  0  0
   -7.9737    3.0368   -5.1139 C   0  0  0  0  0  0  0  0  0  0  0  0
   -6.3545    4.2660   -3.6550 C   0  0  0  0  0  0  0  0  0  0  0  0
   -8.1089    5.2961   -6.8935 N   0  0  0  0  0  0  0  0  0  0  0  0
   -9.3437    5.8276   -6.9483 C   0  0  0  0  0  0  0  0  0  0  0  0
  -10.1590    5.7355   -8.2518 C   0  0  0  0  0  0  0  0  0  0  0  0
  -11.1791    6.8770   -8.3046 C   0  0  0  0  0  0  0  0  0  0  0  0
  -12.0882    6.7158   -9.5244 C   0  0  0  0  0  0  0  0  0  0  0  0
  -12.7230    5.4238   -9.5117 N   0  0  0  0  0  0  0  0  0  0  0  0
  -14.0550    5.2079   -9.3741 C   0  0  0  0  0  0  0  0  0  0  0  0
  -14.8695    6.3990   -9.3412 C   0  0  0  0  0  0  0  0  0  0  0  0
  -15.7150    7.2569   -9.3208 C   0  0  0  0  0  0  0  0  0  0  0  0
  -16.6247    8.3990   -9.2355 C   0  0  0  0  0  0  0  0  0  0  0  0
  -16.0498    9.4942   -8.4356 N   0  0  0  0  0  0  0  0  0  0  0  0
  -15.7473    9.1125   -7.0682 C   0  0  0  0  0  0  0  0  0  0  0  0
  -14.8983   10.1306   -9.0434 C   0  0  0  0  0  0  0  0  0  0  0  0
  -17.9423    7.9299   -8.5964 C   0  0  0  0  0  0  0  0  0  0  0  0
  -16.9289    8.8839  -10.6622 C   0  0  0  0  0  0  0  0  0  0  0  0
  -14.5459    4.0956   -9.3029 O   0  0  0  0  0  0  0  0  0  0  0  0
  -11.8046    4.3119   -9.5116 C   0  0  0  0  0  0  0  0  0  0  0  0
  -10.8822    4.3832   -8.2931 C   0  0  0  0  0  0  0  0  0  0  0  0
   -9.8909    6.3177   -5.9703 O   0  0  0  0  0  0  0  0  0  0  0  0
   -7.3783    4.7725   -8.0286 C   0  0  0  0  0  0  0  0  0  0  0  0
   -5.5691    6.5414   -6.7668 O   0  0  0  0  0  0  0  0  0  0  0  0
   -5.6154    9.6960   -4.7700 C   0  0  0  0  0  0  0  0  0  0  0  0
   -5.1507   10.4047   -6.0483 C   0  0  0  0  0  0  0  0  0  0  0  0
   -5.9411    9.9729   -7.2956 C   0  0  0  0  0  0  0  0  0  0  0  0
   -5.7500   10.9546   -8.3451 N   0  0  0  0  0  0  0  0  0  0  0  0
   -6.3659   12.2146   -7.9652 C   0  0  0  0  0  0  0  0  0  0  0  0
   -6.3133   12.4474   -6.4393 C   0  0  0  0  0  0  0  0  0  0  0  0
   -5.1904   11.8173   -5.8631 O   0  0  0  0  0  0  0  0  0  0  0  0
   -4.9913    7.6403   -2.3405 O   0  0  0  0  0  0  0  0  0  0  0  0
   -2.4712    8.7286   -1.9121 C   0  0  0  0  0  0  0  0  0  0  0  0
   -2.1826   10.2161   -1.6962 C   0  0  0  0  0  0  0  0  0  0  0  0
   -1.3644   10.7657   -2.8658 C   0  0  0  0  0  0  0  0  0  0  0  0
   -1.1265   10.1240   -6.3594 O   0  0  0  0  0  0  0  0  0  0  0  0
   -2.2129   11.9118   -9.0063 C   0  0  0  0  0  0  0  0  0  0  0  0
   -1.8793   10.8893   -9.9222 C   0  0  0  0  0  0  0  0  0  0  0  0
   -2.7936    9.9012  -10.2685 C   0  0  0  0  0  0  0  0  0  0  0  0
   -4.0496    9.9665   -9.7137 C   0  0  0  0  0  0  0  0  0  0  0  0
   -4.4112   10.9918   -8.8238 C   0  0  0  0  0  0  0  0  0  0  0  0
   -3.4937   11.9573   -8.4580 C   0  0  0  0  0  0  0  0  0  0  0  0
   -9.3580    5.8551   -9.3829 F   0  0  0  0  0  0  0  0  0  0  0  0
    1.3982   15.7035  -12.8392 H   0  0  0  0  0  0  0  0  0  0  0  0
    1.3654   14.1929  -13.7526 H   0  0  0  0  0  0  0  0  0  0  0  0
   -0.0732   15.2233  -13.7037 H   0  0  0  0  0  0  0  0  0  0  0  0
   -0.3266   13.2681  -12.1749 H   0  0  0  0  0  0  0  0  0  0  0  0
   -2.2497   15.7439  -10.6167 H   0  0  0  0  0  0  0  0  0  0  0  0
   -1.9597   15.4834  -12.3515 H   0  0  0  0  0  0  0  0  0  0  0  0
   -2.3052   14.0934  -11.2852 H   0  0  0  0  0  0  0  0  0  0  0  0
    4.6882   13.9231  -11.0688 H   0  0  0  0  0  0  0  0  0  0  0  0
    4.5043   12.2875   -9.1810 H   0  0  0  0  0  0  0  0  0  0  0  0
    2.2280   11.5008   -8.5305 H   0  0  0  0  0  0  0  0  0  0  0  0
   -0.5477    9.8822  -12.0041 H   0  0  0  0  0  0  0  0  0  0  0  0
    0.9222   10.8349  -11.7226 H   0  0  0  0  0  0  0  0  0  0  0  0
    1.5040    9.4082   -9.7813 H   0  0  0  0  0  0  0  0  0  0  0  0
   -0.0089    8.5183   -9.9502 H   0  0  0  0  0  0  0  0  0  0  0  0
    1.2392    8.3890  -11.1995 H   0  0  0  0  0  0  0  0  0  0  0  0
   -0.6926   14.8119   -8.6261 H   0  0  0  0  0  0  0  0  0  0  0  0
   -2.0309   14.1647   -7.6788 H   0  0  0  0  0  0  0  0  0  0  0  0
   -0.1264   14.7626   -4.7472 H   0  0  0  0  0  0  0  0  0  0  0  0
   -0.9246   15.7674   -5.9615 H   0  0  0  0  0  0  0  0  0  0  0  0
   -1.7156   14.3069   -5.3556 H   0  0  0  0  0  0  0  0  0  0  0  0
    1.8844   14.6410   -6.1931 H   0  0  0  0  0  0  0  0  0  0  0  0
    1.7767   14.0477   -7.8523 H   0  0  0  0  0  0  0  0  0  0  0  0
    1.0919   15.6121   -7.4317 H   0  0  0  0  0  0  0  0  0  0  0  0
    0.1880   11.7994   -7.0871 H   0  0  0  0  0  0  0  0  0  0  0  0
    1.1691   12.4806   -5.7606 H   0  0  0  0  0  0  0  0  0  0  0  0
   -3.0321   11.0441   -4.2189 H   0  0  0  0  0  0  0  0  0  0  0  0
   -2.5930    8.7069   -5.1451 H   0  0  0  0  0  0  0  0  0  0  0  0
   -4.4034    8.0250   -5.4861 H   0  0  0  0  0  0  0  0  0  0  0  0
   -6.6385    7.1294   -3.8600 H   0  0  0  0  0  0  0  0  0  0  0  0
   -8.1399    5.8172   -4.9197 H   0  0  0  0  0  0  0  0  0  0  0  0
   -6.0296    3.7501   -5.7042 H   0  0  0  0  0  0  0  0  0  0  0  0
   -8.8344    3.3832   -4.5462 H   0  0  0  0  0  0  0  0  0  0  0  0
   -8.2949    2.8301   -6.1311 H   0  0  0  0  0  0  0  0  0  0  0  0
   -7.6193    2.1084   -4.6727 H   0  0  0  0  0  0  0  0  0  0  0  0
   -7.1504    4.6211   -3.0039 H   0  0  0  0  0  0  0  0  0  0  0  0
   -6.0033    3.3117   -3.2693 H   0  0  0  0  0  0  0  0  0  0  0  0
   -5.5279    4.9701   -3.6087 H   0  0  0  0  0  0  0  0  0  0  0  0
  -11.7589    6.8605   -7.3823 H   0  0  0  0  0  0  0  0  0  0  0  0
  -10.6465    7.8274   -8.3620 H   0  0  0  0  0  0  0  0  0  0  0  0
  -12.8543    7.4934   -9.5311 H   0  0  0  0  0  0  0  0  0  0  0  0
  -11.4854    6.8060  -10.4370 H   0  0  0  0  0  0  0  0  0  0  0  0
  -15.3678    9.9888   -6.5442 H   0  0  0  0  0  0  0  0  0  0  0  0
  -16.6510    8.7873   -6.5607 H   0  0  0  0  0  0  0  0  0  0  0  0
  -14.9942    8.3134   -7.0011 H   0  0  0  0  0  0  0  0  0  0  0  0
  -14.5412   10.9073   -8.3686 H   0  0  0  0  0  0  0  0  0  0  0  0
  -14.0671    9.4336   -9.2335 H   0  0  0  0  0  0  0  0  0  0  0  0
  -15.1802   10.6078   -9.9784 H   0  0  0  0  0  0  0  0  0  0  0  0
  -17.7651    7.3501   -7.6950 H   0  0  0  0  0  0  0  0  0  0  0  0
  -18.5522    8.7965   -8.3551 H   0  0  0  0  0  0  0  0  0  0  0  0
  -18.4829    7.2965   -9.2948 H   0  0  0  0  0  0  0  0  0  0  0  0
  -17.4907    9.8131  -10.6150 H   0  0  0  0  0  0  0  0  0  0  0  0
  -16.0194    9.0389  -11.2362 H   0  0  0  0  0  0  0  0  0  0  0  0
  -17.5239    8.1359  -11.1801 H   0  0  0  0  0  0  0  0  0  0  0  0
  -12.3931    3.3924   -9.4945 H   0  0  0  0  0  0  0  0  0  0  0  0
  -11.2034    4.3432  -10.4280 H   0  0  0  0  0  0  0  0  0  0  0  0
  -10.1598    3.5671   -8.3346 H   0  0  0  0  0  0  0  0  0  0  0  0
  -11.4638    4.2864   -7.3753 H   0  0  0  0  0  0  0  0  0  0  0  0
   -6.4858    4.2722   -7.6682 H   0  0  0  0  0  0  0  0  0  0  0  0
   -7.9808    4.0575   -8.5873 H   0  0  0  0  0  0  0  0  0  0  0  0
   -7.0630    5.5734   -8.6978 H   0  0  0  0  0  0  0  0  0  0  0  0
   -6.7065    9.6657   -4.7397 H   0  0  0  0  0  0  0  0  0  0  0  0
   -5.2871   10.2921   -3.9141 H   0  0  0  0  0  0  0  0  0  0  0  0
   -4.0899   10.1854   -6.2301 H   0  0  0  0  0  0  0  0  0  0  0  0
   -5.5949    8.9939   -7.6280 H   0  0  0  0  0  0  0  0  0  0  0  0
   -7.0112    9.9061   -7.0772 H   0  0  0  0  0  0  0  0  0  0  0  0
   -5.8743   13.0239   -8.5053 H   0  0  0  0  0  0  0  0  0  0  0  0
   -7.4159   12.1818   -8.2839 H   0  0  0  0  0  0  0  0  0  0  0  0
   -6.2018   13.5076   -6.2041 H   0  0  0  0  0  0  0  0  0  0  0  0
   -7.2355   12.0836   -5.9648 H   0  0  0  0  0  0  0  0  0  0  0  0
   -3.1355    8.3308   -1.1448 H   0  0  0  0  0  0  0  0  0  0  0  0
   -1.5370    8.1609   -1.9262 H   0  0  0  0  0  0  0  0  0  0  0  0
   -3.1283   10.7577   -1.6228 H   0  0  0  0  0  0  0  0  0  0  0  0
   -1.6393   10.3506   -0.7610 H   0  0  0  0  0  0  0  0  0  0  0  0
   -0.3904   10.2741   -2.8894 H   0  0  0  0  0  0  0  0  0  0  0  0
   -1.2135   11.8394   -2.7632 H   0  0  0  0  0  0  0  0  0  0  0  0
   -2.5371    9.1079  -10.9544 H   0  0  0  0  0  0  0  0  0  0  0  0
   -4.7913    9.2235   -9.9626 H   0  0  0  0  0  0  0  0  0  0  0  0
   -3.7518   12.7251   -7.7447 H   0  0  0  0  0  0  0  0  0  0  0  0
  1  2  1  0  0  0  0
  2  3  1  0  0  0  0
  2  5  1  0  0  0  0
  3  4  1  0  0  0  0
  5  6  2  0  0  0  0
  5 10  1  0  0  0  0
  6  7  1  0  0  0  0
  7  8  2  0  0  0  0
  8  9  1  0  0  0  0
  9 10  2  0  0  0  0
 10 11  1  0  0  0  0
 11 12  1  0  0  0  0
 11 15  2  0  0  0  0
 12 13  1  0  0  0  0
 12 68  1  0  0  0  0
 13 14  1  0  0  0  0
 15 16  1  0  0  0  0
 15 67  1  0  0  0  0
 16 17  1  0  0  0  0
 17 18  1  0  0  0  0
 17 19  1  0  0  0  0
 17 20  1  0  0  0  0
 20 21  1  0  0  0  0
 21 22  1  0  0  0  0
 22 23  1  0  0  0  0
 22 66  2  0  0  0  0
 23 24  1  0  0  0  0
 23 65  1  0  0  0  0
 24 25  1  0  0  0  0
 25 26  1  0  0  0  0
 25 63  1  0  0  0  0
 26 27  1  0  0  0  0
 26 62  2  0  0  0  0
 27 28  1  0  0  0  0
 27 55  1  0  0  0  0
 28 29  1  0  0  0  0
 29 30  1  0  0  0  0
 29 54  2  0  0  0  0
 30 31  1  0  0  0  0
 30 34  1  0  0  0  0
 31 32  1  0  0  0  0
 31 33  1  0  0  0  0
 34 35  1  0  0  0  0
 34 53  1  0  0  0  0
 35 36  1  0  0  0  0
 35 52  2  0  0  0  0
 36 37  1  0  0  0  0
 36 51  1  0  0  0  0
 36 73  1  0  0  0  0
 37 38  1  0  0  0  0
 38 39  1  0  0  0  0
 39 40  1  0  0  0  0
 39 50  1  0  0  0  0
 40 41  1  0  0  0  0
 40 49  2  0  0  0  0
 42 43  1  0  0  0  0
 43 44  1  0  0  0  0
 43 47  1  0  0  0  0
 43 48  1  0  0  0  0
 44 45  1  0  0  0  0
 44 46  1  0  0  0  0
 50 51  1  0  0  0  0
 55 56  1  0  0  0  0
 56 57  1  0  0  0  0
 56 61  1  0  0  0  0
 57 58  1  0  0  0  0
 58 59  1  0  0  0  0
 58 71  1  0  0  0  0
 59 60  1  0  0  0  0
 60 61  1  0  0  0  0
 63 64  1  0  0  0  0
 64 65  1  0  0  0  0
 67 68  2  0  0  0  0
 67 72  1  0  0  0  0
 68 69  1  0  0  0  0
 69 70  2  0  0  0  0
 70 71  1  0  0  0  0
 71 72  2  0  0  0  0
 41 42  3  0  0  0  0
  1 74  1  0  0  0  0
  1 75  1  0  0  0  0
  1 76  1  0  0  0  0
  2 77  1  0  0  0  0
  4 78  1  0  0  0  0
  4 79  1  0  0  0  0
  4 80  1  0  0  0  0
  7 81  1  0  0  0  0
  8 82  1  0  0  0  0
  9 83  1  0  0  0  0
 13 84  1  0  0  0  0
 13 85  1  0  0  0  0
 14 86  1  0  0  0  0
 14 87  1  0  0  0  0
 14 88  1  0  0  0  0
 16 89  1  0  0  0  0
 16 90  1  0  0  0  0
 18 91  1  0  0  0  0
 18 92  1  0  0  0  0
 18 93  1  0  0  0  0
 19 94  1  0  0  0  0
 19 95  1  0  0  0  0
 19 96  1  0  0  0  0
 20 97  1  0  0  0  0
 20 98  1  0  0  0  0
 23 99  1  0  0  0  0
 24100  1  0  0  0  0
 27101  1  0  0  0  0
 28102  1  0  0  0  0
 30103  1  0  0  0  0
 31104  1  0  0  0  0
 32105  1  0  0  0  0
 32106  1  0  0  0  0
 32107  1  0  0  0  0
 33108  1  0  0  0  0
 33109  1  0  0  0  0
 33110  1  0  0  0  0
 37111  1  0  0  0  0
 37112  1  0  0  0  0
 38113  1  0  0  0  0
 38114  1  0  0  0  0
 45115  1  0  0  0  0
 45116  1  0  0  0  0
 45117  1  0  0  0  0
 46118  1  0  0  0  0
 46119  1  0  0  0  0
 46120  1  0  0  0  0
 47121  1  0  0  0  0
 47122  1  0  0  0  0
 47123  1  0  0  0  0
 48124  1  0  0  0  0
 48125  1  0  0  0  0
 48126  1  0  0  0  0
 50127  1  0  0  0  0
 50128  1  0  0  0  0
 51129  1  0  0  0  0
 51130  1  0  0  0  0
 53131  1  0  0  0  0
 53132  1  0  0  0  0
 53133  1  0  0  0  0
 55134  1  0  0  0  0
 55135  1  0  0  0  0
 56136  1  0  0  0  0
 57137  1  0  0  0  0
 57138  1  0  0  0  0
 59139  1  0  0  0  0
 59140  1  0  0  0  0
 60141  1  0  0  0  0
 60142  1  0  0  0  0
 63143  1  0  0  0  0
 63144  1  0  0  0  0
 64145  1  0  0  0  0
 64146  1  0  0  0  0
 65147  1  0  0  0  0
 65148  1  0  0  0  0
 69149  1  0  0  0  0
 70150  1  0  0  0  0
 72151  1  0  0  0  0
M  END
$$$$
