mol_bioactive_7
     RDKit          3D

151157  0  0  0  0  0  0  0  0999 V2000
   -0.1577   15.9585  -12.6168 C   0  0  0  0  0  0  0  0  0  0  0  0
   -0.2432   15.2419  -11.2669 C   0  0  2  0  0  0  0  0  0  0  0  0
   -0.5045   16.1972  -10.2287 O   0  0  0  0  0  0  0  0  0  0  0  0
   -1.8774   16.5334  -10.1129 C   0  0  0  0  0  0  0  0  0  0  0  0
    1.0534   14.5012  -10.9437 C   0  0  0  0  0  0  0  0  0  0  0  0
    2.2138   15.0811  -11.3763 N   0  0  0  0  0  0  0  0  0  0  0  0
    3.3764   14.4386  -11.1429 C   0  0  0  0  0  0  0  0  0  0  0  0
    3.4617   13.2206  -10.5001 C   0  0  0  0  0  0  0  0  0  0  0  0
    2.2846   12.6333  -10.0565 C   0  0  0  0  0  0  0  0  0  0  0  0
    1.0531   13.2748  -10.2539 C   0  0  0  0  0  0  0  0  0  0  0  0
   -0.1718   12.6028   -9.8104 C   0  0  0  0  0  0  0  0  0  0  0  0
   -0.7479   11.5702  -10.5376 N   0  0  0  0  0  0  0  0  0  0  0  0
   -0.1994   10.9496  -11.7378 C   0  0  0  0  0  0  0  0  0  0  0  0
    0.4939    9.6304  -11.4408 C   0  0  0  0  0  0  0  0  0  0  0  0
   -1.0076   12.8698   -8.7248 C   0  0  0  0  0  0  0  0  0  0  0  0
   -0.8479   13.8913   -7.6174 C   0  0  0  0  0  0  0  0  0  0  0  0
    0.1858   13.6395   -6.4857 C   0  0  0  0  0  0  0  0  0  0  0  0
   -0.1747   14.5823   -5.3137 C   0  0  0  0  0  0  0  0  0  0  0  0
    1.6064   14.0208   -6.9427 C   0  0  0  0  0  0  0  0  0  0  0  0
    0.2326   12.1785   -5.9828 C   0  0  0  0  0  0  0  0  0  0  0  0
   -0.9124   11.8298   -5.1877 O   0  0  0  0  0  0  0  0  0  0  0  0
   -0.7541   10.6428   -4.5237 C   0  0  0  0  0  0  0  0  0  0  0  0
   -1.9445   10.3665   -3.5970 C   0  0  1  0  0  0  0  0  0  0  0  0
   -2.3272    8.9508   -3.7401 N   0  0  0  0  0  0  0  0  0  0  0  0
   -3.3296    8.5619   -2.8294 N   0  0  0  0  0  0  0  0  0  0  0  0
   -4.6083    8.1293   -3.1846 C   0  0  0  0  0  0  0  0  0  0  0  0
   -5.1113    8.5074   -4.5922 C   0  0  1  0  0  0  0  0  0  0  0  0
   -6.1971    7.6134   -4.9804 N   0  0  0  0  0  0  0  0  0  0  0  0
   -5.9615    6.5204   -5.7917 C   0  0  0  0  0  0  0  0  0  0  0  0
   -7.1525    5.5402   -5.9076 C   0  0  2  0  0  0  0  0  0  0  0  0
   -6.7671    4.1319   -5.3888 C   0  0  0  0  0  0  0  0  0  0  0  0
   -7.9243    3.1411   -5.5725 C   0  0  0  0  0  0  0  0  0  0  0  0
   -6.3813    4.1830   -3.9039 C   0  0  0  0  0  0  0  0  0  0  0  0
   -7.6714    5.5364   -7.2969 N   0  0  0  0  0  0  0  0  0  0  0  0
   -8.7549    6.3813   -7.5724 C   0  0  0  0  0  0  0  0  0  0  0  0
   -9.4279    6.2861   -8.9625 C   0  0  0  0  0  0  0  0  0  0  0  0
  -10.4326    7.4325   -9.1475 C   0  0  0  0  0  0  0  0  0  0  0  0
  -11.2176    7.2809  -10.4471 C   0  0  0  0  0  0  0  0  0  0  0  0
  -11.8344    5.9610  -10.5067 N   0  0  0  0  0  0  0  0  0  0  0  0
  -13.1905    5.7139  -10.6892 C   0  0  0  0  0  0  0  0  0  0  0  0
  -14.0833    6.8369  -10.8825 C   0  0  0  0  0  0  0  0  0  0  0  0
  -14.8472    7.7458  -11.0720 C   0  0  0  0  0  0  0  0  0  0  0  0
  -15.7982    8.8525  -11.3576 C   0  0  0  0  0  0  0  0  0  0  0  0
  -16.8361    8.9242  -10.2993 N   0  0  0  0  0  0  0  0  0  0  0  0
  -16.3057    9.0801   -8.9422 C   0  0  0  0  0  0  0  0  0  0  0  0
  -17.8819    9.9177  -10.5331 C   0  0  0  0  0  0  0  0  0  0  0  0
  -14.9807   10.1529  -11.5209 C   0  0  0  0  0  0  0  0  0  0  0  0
  -16.4427    8.5148  -12.7243 C   0  0  0  0  0  0  0  0  0  0  0  0
  -13.6834    4.5926  -10.6972 O   0  0  0  0  0  0  0  0  0  0  0  0
  -10.9196    4.8379  -10.3924 C   0  0  0  0  0  0  0  0  0  0  0  0
  -10.1324    4.9267   -9.0914 C   0  0  0  0  0  0  0  0  0  0  0  0
   -9.2227    7.1174   -6.6937 O   0  0  0  0  0  0  0  0  0  0  0  0
   -6.7601    5.1271   -8.3651 C   0  0  0  0  0  0  0  0  0  0  0  0
   -4.9034    6.3708   -6.4012 O   0  0  0  0  0  0  0  0  0  0  0  0
   -5.6212    9.9523   -4.5324 C   0  0  0  0  0  0  0  0  0  0  0  0
   -5.2644   10.7615   -5.7771 C   0  0  1  0  0  0  0  0  0  0  0  0
   -5.8486   10.1651   -7.0834 C   0  0  0  0  0  0  0  0  0  0  0  0
   -5.7742   11.1513   -8.1821 N   0  0  0  0  0  0  0  0  0  0  0  0
   -6.3722   12.4630   -7.8360 C   0  0  0  0  0  0  0  0  0  0  0  0
   -6.7479   12.5538   -6.3484 C   0  0  0  0  0  0  0  0  0  0  0  0
   -5.6702   12.1260   -5.5125 O   0  0  0  0  0  0  0  0  0  0  0  0
   -5.3786    7.5860   -2.3857 O   0  0  0  0  0  0  0  0  0  0  0  0
   -2.9250    8.6528   -1.4290 C   0  0  0  0  0  0  0  0  0  0  0  0
   -2.5532   10.1091   -1.1291 C   0  0  0  0  0  0  0  0  0  0  0  0
   -1.5246   10.6386   -2.1398 C   0  0  0  0  0  0  0  0  0  0  0  0
    0.2243    9.9126   -4.6273 O   0  0  0  0  0  0  0  0  0  0  0  0
   -2.2006   12.0878   -8.9289 C   0  0  0  0  0  0  0  0  0  0  0  0
   -2.0000   11.2686  -10.0346 C   0  0  0  0  0  0  0  0  0  0  0  0
   -2.9750   10.3643  -10.4792 C   0  0  0  0  0  0  0  0  0  0  0  0
   -4.2089   10.3471   -9.8210 C   0  0  0  0  0  0  0  0  0  0  0  0
   -4.4860   11.1972   -8.7523 C   0  0  0  0  0  0  0  0  0  0  0  0
   -3.4589   12.0353   -8.2820 C   0  0  0  0  0  0  0  0  0  0  0  0
   -8.5111    6.3919   -9.9776 F   0  0  0  0  0  0  0  0  0  0  0  0
    0.5364   16.8063  -12.5734 H   0  0  0  0  0  0  0  0  0  0  0  0
    0.1695   15.2776  -13.4115 H   0  0  0  0  0  0  0  0  0  0  0  0
   -1.1315   16.3689  -12.9035 H   0  0  0  0  0  0  0  0  0  0  0  0
   -1.0659   14.5228  -11.3321 H   0  0  0  0  0  0  0  0  0  0  0  0
   -1.9861   17.2280   -9.2759 H   0  0  0  0  0  0  0  0  0  0  0  0
   -2.2376   17.0345  -11.0163 H   0  0  0  0  0  0  0  0  0  0  0  0
   -2.4778   15.6458   -9.9010 H   0  0  0  0  0  0  0  0  0  0  0  0
    4.2651   14.9475  -11.5050 H   0  0  0  0  0  0  0  0  0  0  0  0
    4.4211   12.7421  -10.3427 H   0  0  0  0  0  0  0  0  0  0  0  0
    2.3258   11.6780   -9.5373 H   0  0  0  0  0  0  0  0  0  0  0  0
   -1.0236   10.8006  -12.4427 H   0  0  0  0  0  0  0  0  0  0  0  0
    0.4891   11.6490  -12.2205 H   0  0  0  0  0  0  0  0  0  0  0  0
    1.3661    9.7776  -10.7978 H   0  0  0  0  0  0  0  0  0  0  0  0
   -0.1766    8.9320  -10.9302 H   0  0  0  0  0  0  0  0  0  0  0  0
    0.8300    9.1632  -12.3713 H   0  0  0  0  0  0  0  0  0  0  0  0
   -0.6373   14.8637   -8.0766 H   0  0  0  0  0  0  0  0  0  0  0  0
   -1.8328   14.0213   -7.1523 H   0  0  0  0  0  0  0  0  0  0  0  0
    0.5283   14.4668   -4.4821 H   0  0  0  0  0  0  0  0  0  0  0  0
   -0.1410   15.6304   -5.6327 H   0  0  0  0  0  0  0  0  0  0  0  0
   -1.1806   14.3862   -4.9275 H   0  0  0  0  0  0  0  0  0  0  0  0
    2.2749   14.1500   -6.0821 H   0  0  0  0  0  0  0  0  0  0  0  0
    2.0513   13.2343   -7.5510 H   0  0  0  0  0  0  0  0  0  0  0  0
    1.6181   14.9584   -7.5076 H   0  0  0  0  0  0  0  0  0  0  0  0
    0.3103   11.4771   -6.8204 H   0  0  0  0  0  0  0  0  0  0  0  0
    1.1295   12.0634   -5.3622 H   0  0  0  0  0  0  0  0  0  0  0  0
   -2.7857   11.0044   -3.8847 H   0  0  0  0  0  0  0  0  0  0  0  0
   -2.4640    8.6527   -4.7044 H   0  0  0  0  0  0  0  0  0  0  0  0
   -4.3028    8.3994   -5.3142 H   0  0  0  0  0  0  0  0  0  0  0  0
   -6.9569    7.5293   -4.3121 H   0  0  0  0  0  0  0  0  0  0  0  0
   -7.9530    5.9035   -5.2498 H   0  0  0  0  0  0  0  0  0  0  0  0
   -5.8971    3.7436   -5.9347 H   0  0  0  0  0  0  0  0  0  0  0  0
   -8.8540    3.5354   -5.1491 H   0  0  0  0  0  0  0  0  0  0  0  0
   -8.0969    2.9322   -6.6322 H   0  0  0  0  0  0  0  0  0  0  0  0
   -7.7056    2.1877   -5.0821 H   0  0  0  0  0  0  0  0  0  0  0  0
   -7.1916    4.6048   -3.2959 H   0  0  0  0  0  0  0  0  0  0  0  0
   -6.1622    3.1777   -3.5237 H   0  0  0  0  0  0  0  0  0  0  0  0
   -5.4855    4.7940   -3.7474 H   0  0  0  0  0  0  0  0  0  0  0  0
  -11.1419    7.4558   -8.3070 H   0  0  0  0  0  0  0  0  0  0  0  0
   -9.9059    8.3945   -9.1575 H   0  0  0  0  0  0  0  0  0  0  0  0
  -11.9582    8.0816  -10.5154 H   0  0  0  0  0  0  0  0  0  0  0  0
  -10.5523    7.3761  -11.3121 H   0  0  0  0  0  0  0  0  0  0  0  0
  -17.1228    9.1251   -8.2090 H   0  0  0  0  0  0  0  0  0  0  0  0
  -15.7060    8.2110   -8.6486 H   0  0  0  0  0  0  0  0  0  0  0  0
  -15.7017    9.9860   -8.8178 H   0  0  0  0  0  0  0  0  0  0  0  0
  -18.6684    9.8228   -9.7761 H   0  0  0  0  0  0  0  0  0  0  0  0
  -17.5123   10.9442  -10.4958 H   0  0  0  0  0  0  0  0  0  0  0  0
  -18.3878    9.7562  -11.4855 H   0  0  0  0  0  0  0  0  0  0  0  0
  -14.4358   10.4197  -10.6079 H   0  0  0  0  0  0  0  0  0  0  0  0
  -14.2286   10.0488  -12.3140 H   0  0  0  0  0  0  0  0  0  0  0  0
  -15.6165   11.0010  -11.7958 H   0  0  0  0  0  0  0  0  0  0  0  0
  -17.1097    7.6462  -12.6452 H   0  0  0  0  0  0  0  0  0  0  0  0
  -17.0183    9.3539  -13.1295 H   0  0  0  0  0  0  0  0  0  0  0  0
  -15.6816    8.2608  -13.4758 H   0  0  0  0  0  0  0  0  0  0  0  0
  -11.4507    3.8842  -10.4346 H   0  0  0  0  0  0  0  0  0  0  0  0
  -10.2440    4.8734  -11.2545 H   0  0  0  0  0  0  0  0  0  0  0  0
   -9.4145    4.1047   -9.0718 H   0  0  0  0  0  0  0  0  0  0  0  0
  -10.8079    4.7758   -8.2395 H   0  0  0  0  0  0  0  0  0  0  0  0
   -5.9865    4.4531   -7.9934 H   0  0  0  0  0  0  0  0  0  0  0  0
   -7.3002    4.5988   -9.1498 H   0  0  0  0  0  0  0  0  0  0  0  0
   -6.2947    6.0186   -8.7971 H   0  0  0  0  0  0  0  0  0  0  0  0
   -6.7089    9.9829   -4.3675 H   0  0  0  0  0  0  0  0  0  0  0  0
   -5.1989   10.4789   -3.6654 H   0  0  0  0  0  0  0  0  0  0  0  0
   -4.1724   10.7877   -5.8581 H   0  0  0  0  0  0  0  0  0  0  0  0
   -5.3545    9.2251   -7.3532 H   0  0  0  0  0  0  0  0  0  0  0  0
   -6.9083    9.9202   -6.9356 H   0  0  0  0  0  0  0  0  0  0  0  0
   -5.7146   13.3044   -8.0883 H   0  0  0  0  0  0  0  0  0  0  0  0
   -7.2794   12.5990   -8.4394 H   0  0  0  0  0  0  0  0  0  0  0  0
   -6.9846   13.5912   -6.0906 H   0  0  0  0  0  0  0  0  0  0  0  0
   -7.6375   11.9574   -6.1177 H   0  0  0  0  0  0  0  0  0  0  0  0
   -3.7297    8.3241   -0.7642 H   0  0  0  0  0  0  0  0  0  0  0  0
   -2.0655    7.9910   -1.2736 H   0  0  0  0  0  0  0  0  0  0  0  0
   -3.4566   10.7280   -1.1882 H   0  0  0  0  0  0  0  0  0  0  0  0
   -2.1628   10.1978   -0.1101 H   0  0  0  0  0  0  0  0  0  0  0  0
   -0.5527   10.1741   -1.9289 H   0  0  0  0  0  0  0  0  0  0  0  0
   -1.3909   11.7147   -1.9920 H   0  0  0  0  0  0  0  0  0  0  0  0
   -2.8090    9.7125  -11.3301 H   0  0  0  0  0  0  0  0  0  0  0  0
   -4.9863    9.6729  -10.1760 H   0  0  0  0  0  0  0  0  0  0  0  0
   -3.6309   12.6788   -7.4263 H   0  0  0  0  0  0  0  0  0  0  0  0
  1  2  1  0
  2  3  1  0
  2  5  1  0
  3  4  1  0
  5  6  2  0
  5 10  1  0
  6  7  1  0
  7  8  2  0
  8  9  1  0
  9 10  2  0
 10 11  1  0
 11 12  1  0
 11 15  2  0
 12 13  1  0
 12 68  1  0
 13 14  1  0
 15 16  1  0
 15 67  1  0
 16 17  1  0
 17 18  1  0
 17 19  1  0
 17 20  1  0
 20 21  1  0
 21 22  1  0
 22 23  1  0
 22 66  2  0
 23 24  1  0
 23 65  1  0
 24 25  1  0
 25 26  1  0
 25 63  1  0
 26 27  1  0
 26 62  2  0
 27 28  1  0
 27 55  1  0
 28 29  1  0
 29 30  1  0
 29 54  2  0
 30 31  1  0
 30 34  1  0
 31 32  1  0
 31 33  1  0
 34 35  1  0
 34 53  1  0
 35 36  1  0
 35 52  2  0
 36 37  1  0
 36 51  1  0
 36 73  1  0
 37 38  1  0
 38 39  1  0
 39 40  1  0
 39 50  1  0
 40 41  1  0
 40 49  2  0
 42 43  1  0
 43 44  1  0
 43 47  1  0
 43 48  1  0
 44 45  1  0
 44 46  1  0
 50 51  1  0
 55 56  1  0
 56 57  1  0
 56 61  1  0
 57 58  1  0
 58 59  1  0
 58 71  1  0
 59 60  1  0
 60 61  1  0
 63 64  1  0
 64 65  1  0
 67 68  2  0
 67 72  1  0
 68 69  1  0
 69 70  2  0
 70 71  1  0
 71 72  2  0
 41 42  3  0
  1 74  1  0
  1 75  1  0
  1 76  1  0
  2 77  1  6
  4 78  1  0
  4 79  1  0
  4 80  1  0
  7 81  1  0
  8 82  1  0
  9 83  1  0
 13 84  1  0
 13 85  1  0
 14 86  1  0
 14 87  1  0
 14 88  1  0
 16 89  1  0
 16 90  1  0
 18 91  1  0
 18 92  1  0
 18 93  1  0
 19 94  1  0
 19 95  1  0
 19 96  1  0
 20 97  1  0
 20 98  1  0
 23 99  1  6
 24100  1  0
 27101  1  6
 28102  1  0
 30103  1  1
 31104  1  0
 32105  1  0
 32106  1  0
 32107  1  0
 33108  1  0
 33109  1  0
 33110  1  0
 37111  1  0
 37112  1  0
 38113  1  0
 38114  1  0
 45115  1  0
 45116  1  0
 45117  1  0
 46118  1  0
 46119  1  0
 46120  1  0
 47121  1  0
 47122  1  0
 47123  1  0
 48124  1  0
 48125  1  0
 48126  1  0
 50127  1  0
 50128  1  0
 51129  1  0
 51130  1  0
 53131  1  0
 53132  1  0
 53133  1  0
 55134  1  0
 55135  1  0
 56136  1  6
 57137  1  0
 57138  1  0
 59139  1  0
 59140  1  0
 60141  1  0
 60142  1  0
 63143  1  0
 63144  1  0
 64145  1  0
 64146  1  0
 65147  1  0
 65148  1  0
 69149  1  0
 70150  1  0
 72151  1  0
M  END
$$$$
