 energy: -221.262957600744 gnorm: 0.000636836324 xtb: 6.7.1 (edcfbbe)
          08182523503D

151157  0     0  0            999 V2000
    1.0775   15.3968  -12.5900 C   0  0  0  0  0  0  0  0  0  0  0  0
    0.5147   14.5992  -11.4158 C   0  0  0  0  0  0  0  0  0  0  0  0
   -0.4108   15.3584  -10.6499 O   0  0  0  0  0  0  0  0  0  0  0  0
   -1.7229   15.3503  -11.1493 C   0  0  0  0  0  0  0  0  0  0  0  0
    1.6126   14.1517  -10.4696 C   0  0  0  0  0  0  0  0  0  0  0  0
    2.8180   14.6635  -10.6472 N   0  0  0  0  0  0  0  0  0  0  0  0
    3.8043   14.2865   -9.8539 C   0  0  0  0  0  0  0  0  0  0  0  0
    3.6470   13.3603   -8.8360 C   0  0  0  0  0  0  0  0  0  0  0  0
    2.3874   12.8174   -8.6428 C   0  0  0  0  0  0  0  0  0  0  0  0
    1.3354   13.2176   -9.4610 C   0  0  0  0  0  0  0  0  0  0  0  0
   -0.0078   12.6391   -9.3127 C   0  0  0  0  0  0  0  0  0  0  0  0
   -0.3280   11.4976  -10.0175 N   0  0  0  0  0  0  0  0  0  0  0  0
    0.5754   10.7131  -10.8152 C   0  0  0  0  0  0  0  0  0  0  0  0
    1.1788    9.5584  -10.0163 C   0  0  0  0  0  0  0  0  0  0  0  0
   -1.0947   13.0756   -8.5953 C   0  0  0  0  0  0  0  0  0  0  0  0
   -1.2407   14.2872   -7.7304 C   0  0  0  0  0  0  0  0  0  0  0  0
   -0.4845   14.3041   -6.3716 C   0  0  0  0  0  0  0  0  0  0  0  0
   -1.3530   15.0177   -5.3307 C   0  0  0  0  0  0  0  0  0  0  0  0
    0.8224   15.0906   -6.5235 C   0  0  0  0  0  0  0  0  0  0  0  0
   -0.1296   12.8922   -5.8646 C   0  0  0  0  0  0  0  0  0  0  0  0
   -1.1232   12.3374   -4.9964 O   0  0  0  0  0  0  0  0  0  0  0  0
   -1.5292   11.0969   -5.2130 C   0  0  0  0  0  0  0  0  0  0  0  0
   -2.4401   10.6167   -4.0851 C   0  0  0  0  0  0  0  0  0  0  0  0
   -2.5458    9.1682   -4.1870 N   0  0  0  0  0  0  0  0  0  0  0  0
   -3.4361    8.6276   -3.2531 N   0  0  0  0  0  0  0  0  0  0  0  0
   -4.6490    8.0996   -3.4856 C   0  0  0  0  0  0  0  0  0  0  0  0
   -5.2000    8.2241   -4.9097 C   0  0  0  0  0  0  0  0  0  0  0  0
   -6.2075    7.2120   -5.1020 N   0  0  0  0  0  0  0  0  0  0  0  0
   -6.2072    6.3976   -6.1730 C   0  0  0  0  0  0  0  0  0  0  0  0
   -7.3544    5.3821   -6.1813 C   0  0  0  0  0  0  0  0  0  0  0  0
   -6.9294    4.0248   -5.5890 C   0  0  0  0  0  0  0  0  0  0  0  0
   -8.0480    3.0011   -5.7729 C   0  0  0  0  0  0  0  0  0  0  0  0
   -6.6065    4.1829   -4.1039 C   0  0  0  0  0  0  0  0  0  0  0  0
   -7.8886    5.2889   -7.5369 N   0  0  0  0  0  0  0  0  0  0  0  0
   -9.0200    5.9782   -7.7743 C   0  0  0  0  0  0  0  0  0  0  0  0
   -9.6650    5.9424   -9.1723 C   0  0  0  0  0  0  0  0  0  0  0  0
  -10.4954    7.2108   -9.3903 C   0  0  0  0  0  0  0  0  0  0  0  0
  -11.2746    7.1146  -10.7036 C   0  0  0  0  0  0  0  0  0  0  0  0
  -12.0876    5.9258  -10.7169 N   0  0  0  0  0  0  0  0  0  0  0  0
  -13.4435    5.9072  -10.6690 C   0  0  0  0  0  0  0  0  0  0  0  0
  -14.0691    7.2052  -10.7596 C   0  0  0  0  0  0  0  0  0  0  0  0
  -14.7367    8.2053  -10.8155 C   0  0  0  0  0  0  0  0  0  0  0  0
  -15.4145    9.4932  -10.9381 C   0  0  0  0  0  0  0  0  0  0  0  0
  -16.6493    9.4484  -10.1518 N   0  0  0  0  0  0  0  0  0  0  0  0
  -16.4755    8.9996   -8.7871 C   0  0  0  0  0  0  0  0  0  0  0  0
  -17.4555   10.6472  -10.1963 C   0  0  0  0  0  0  0  0  0  0  0  0
  -14.4176   10.5911  -10.5055 C   0  0  0  0  0  0  0  0  0  0  0  0
  -15.7523    9.6581  -12.4309 C   0  0  0  0  0  0  0  0  0  0  0  0
  -14.0939    4.8821  -10.5820 O   0  0  0  0  0  0  0  0  0  0  0  0
  -11.3419    4.6991  -10.5772 C   0  0  0  0  0  0  0  0  0  0  0  0
  -10.5593    4.6990   -9.2623 C   0  0  0  0  0  0  0  0  0  0  0  0
   -9.6261    6.5656   -6.8884 O   0  0  0  0  0  0  0  0  0  0  0  0
   -7.0538    4.6944   -8.5599 C   0  0  0  0  0  0  0  0  0  0  0  0
   -5.3953    6.4955   -7.0720 O   0  0  0  0  0  0  0  0  0  0  0  0
   -5.8006    9.6373   -5.0677 C   0  0  0  0  0  0  0  0  0  0  0  0
   -5.2561   10.3859   -6.2899 C   0  0  0  0  0  0  0  0  0  0  0  0
   -5.8717    9.9025   -7.6148 C   0  0  0  0  0  0  0  0  0  0  0  0
   -5.6510   10.9063   -8.6378 N   0  0  0  0  0  0  0  0  0  0  0  0
   -6.4070   12.1072   -8.3250 C   0  0  0  0  0  0  0  0  0  0  0  0
   -6.5318   12.3316   -6.8019 C   0  0  0  0  0  0  0  0  0  0  0  0
   -5.4268   11.7897   -6.1124 O   0  0  0  0  0  0  0  0  0  0  0  0
   -5.3098    7.5634   -2.6094 O   0  0  0  0  0  0  0  0  0  0  0  0
   -2.9215    8.7941   -1.9076 C   0  0  0  0  0  0  0  0  0  0  0  0
   -2.7558   10.2897   -1.6280 C   0  0  0  0  0  0  0  0  0  0  0  0
   -1.8663   10.9261   -2.6970 C   0  0  0  0  0  0  0  0  0  0  0  0
   -1.2264   10.4132   -6.1560 O   0  0  0  0  0  0  0  0  0  0  0  0
   -2.1519   12.1569   -8.8804 C   0  0  0  0  0  0  0  0  0  0  0  0
   -1.6308   11.1773   -9.7546 C   0  0  0  0  0  0  0  0  0  0  0  0
   -2.4156   10.1253  -10.2123 C   0  0  0  0  0  0  0  0  0  0  0  0
   -3.7290   10.0814   -9.8083 C   0  0  0  0  0  0  0  0  0  0  0  0
   -4.2740   11.0610   -8.9616 C   0  0  0  0  0  0  0  0  0  0  0  0
   -3.4878   12.0932   -8.4881 C   0  0  0  0  0  0  0  0  0  0  0  0
   -8.7241    5.8942  -10.1958 F   0  0  0  0  0  0  0  0  0  0  0  0
    1.5803   16.2825  -12.2142 H   0  0  0  0  0  0  0  0  0  0  0  0
    1.7951   14.7912  -13.1354 H   0  0  0  0  0  0  0  0  0  0  0  0
    0.2775   15.6941  -13.2635 H   0  0  0  0  0  0  0  0  0  0  0  0
    0.0027   13.6968  -11.7944 H   0  0  0  0  0  0  0  0  0  0  0  0
   -2.3133   15.9576  -10.4655 H   0  0  0  0  0  0  0  0  0  0  0  0
   -1.7840   15.7819  -12.1543 H   0  0  0  0  0  0  0  0  0  0  0  0
   -2.1320   14.3321  -11.1717 H   0  0  0  0  0  0  0  0  0  0  0  0
    4.7633   14.7454  -10.0553 H   0  0  0  0  0  0  0  0  0  0  0  0
    4.4807   13.0691   -8.2163 H   0  0  0  0  0  0  0  0  0  0  0  0
    2.2144   12.0880   -7.8637 H   0  0  0  0  0  0  0  0  0  0  0  0
    0.0214   10.3193  -11.6731 H   0  0  0  0  0  0  0  0  0  0  0  0
    1.3706   11.3653  -11.1900 H   0  0  0  0  0  0  0  0  0  0  0  0
    1.7912    9.9399   -9.2033 H   0  0  0  0  0  0  0  0  0  0  0  0
    0.3880    8.9456   -9.5913 H   0  0  0  0  0  0  0  0  0  0  0  0
    1.7995    8.9412  -10.6606 H   0  0  0  0  0  0  0  0  0  0  0  0
   -0.9155   15.1587   -8.3024 H   0  0  0  0  0  0  0  0  0  0  0  0
   -2.3069   14.4010   -7.5299 H   0  0  0  0  0  0  0  0  0  0  0  0
   -0.8352   15.0700   -4.3755 H   0  0  0  0  0  0  0  0  0  0  0  0
   -1.5713   16.0298   -5.6632 H   0  0  0  0  0  0  0  0  0  0  0  0
   -2.2904   14.4885   -5.1805 H   0  0  0  0  0  0  0  0  0  0  0  0
    1.3420   15.1634   -5.5697 H   0  0  0  0  0  0  0  0  0  0  0  0
    1.4822   14.6154   -7.2424 H   0  0  0  0  0  0  0  0  0  0  0  0
    0.6115   16.0983   -6.8724 H   0  0  0  0  0  0  0  0  0  0  0  0
    0.0201   12.2058   -6.7022 H   0  0  0  0  0  0  0  0  0  0  0  0
    0.7878   12.9403   -5.2677 H   0  0  0  0  0  0  0  0  0  0  0  0
   -3.4077   11.1350   -4.2034 H   0  0  0  0  0  0  0  0  0  0  0  0
   -2.7225    8.8608   -5.1362 H   0  0  0  0  0  0  0  0  0  0  0  0
   -4.4353    8.0378   -5.6702 H   0  0  0  0  0  0  0  0  0  0  0  0
   -6.8089    7.0449   -4.3075 H   0  0  0  0  0  0  0  0  0  0  0  0
   -8.1774    5.7766   -5.5757 H   0  0  0  0  0  0  0  0  0  0  0  0
   -6.0254    3.6703   -6.0948 H   0  0  0  0  0  0  0  0  0  0  0  0
   -8.9627    3.3582   -5.3049 H   0  0  0  0  0  0  0  0  0  0  0  0
   -8.2500    2.8196   -6.8248 H   0  0  0  0  0  0  0  0  0  0  0  0
   -7.7698    2.0571   -5.3106 H   0  0  0  0  0  0  0  0  0  0  0  0
   -7.4747    4.5475   -3.5591 H   0  0  0  0  0  0  0  0  0  0  0  0
   -6.3257    3.2193   -3.6851 H   0  0  0  0  0  0  0  0  0  0  0  0
   -5.7812    4.8714   -3.9435 H   0  0  0  0  0  0  0  0  0  0  0  0
  -11.1737    7.3254   -8.5455 H   0  0  0  0  0  0  0  0  0  0  0  0
   -9.8254    8.0714   -9.4182 H   0  0  0  0  0  0  0  0  0  0  0  0
  -11.9124    7.9909  -10.8291 H   0  0  0  0  0  0  0  0  0  0  0  0
  -10.5662    7.0661  -11.5398 H   0  0  0  0  0  0  0  0  0  0  0  0
  -17.4595    8.7817   -8.3716 H   0  0  0  0  0  0  0  0  0  0  0  0
  -15.8863    8.0852   -8.7749 H   0  0  0  0  0  0  0  0  0  0  0  0
  -15.9897    9.7471   -8.1400 H   0  0  0  0  0  0  0  0  0  0  0  0
  -18.4220   10.4178   -9.7467 H   0  0  0  0  0  0  0  0  0  0  0  0
  -17.0168   11.4911   -9.6405 H   0  0  0  0  0  0  0  0  0  0  0  0
  -17.6279   10.9521  -11.2248 H   0  0  0  0  0  0  0  0  0  0  0  0
  -14.1203   10.4525   -9.4685 H   0  0  0  0  0  0  0  0  0  0  0  0
  -13.5273   10.5451  -11.1283 H   0  0  0  0  0  0  0  0  0  0  0  0
  -14.8681   11.5743  -10.6184 H   0  0  0  0  0  0  0  0  0  0  0  0
  -16.5848    9.0088  -12.6873 H   0  0  0  0  0  0  0  0  0  0  0  0
  -16.0115   10.6878  -12.6630 H   0  0  0  0  0  0  0  0  0  0  0  0
  -14.8918    9.3788  -13.0348 H   0  0  0  0  0  0  0  0  0  0  0  0
  -12.0524    3.8704  -10.5994 H   0  0  0  0  0  0  0  0  0  0  0  0
  -10.6456    4.6064  -11.4187 H   0  0  0  0  0  0  0  0  0  0  0  0
   -9.9535    3.7943   -9.1960 H   0  0  0  0  0  0  0  0  0  0  0  0
  -11.2486    4.7198   -8.4170 H   0  0  0  0  0  0  0  0  0  0  0  0
   -6.2640    4.1262   -8.0807 H   0  0  0  0  0  0  0  0  0  0  0  0
   -7.6319    4.0251   -9.1962 H   0  0  0  0  0  0  0  0  0  0  0  0
   -6.5843    5.4598   -9.1783 H   0  0  0  0  0  0  0  0  0  0  0  0
   -6.8864    9.5491   -5.1450 H   0  0  0  0  0  0  0  0  0  0  0  0
   -5.5904   10.2397   -4.1797 H   0  0  0  0  0  0  0  0  0  0  0  0
   -4.1679   10.2515   -6.3547 H   0  0  0  0  0  0  0  0  0  0  0  0
   -5.4135    8.9582   -7.9103 H   0  0  0  0  0  0  0  0  0  0  0  0
   -6.9498    9.7458   -7.5114 H   0  0  0  0  0  0  0  0  0  0  0  0
   -5.9320   12.9587   -8.8124 H   0  0  0  0  0  0  0  0  0  0  0  0
   -7.4120   11.9883   -8.7504 H   0  0  0  0  0  0  0  0  0  0  0  0
   -6.5313   13.3956   -6.5569 H   0  0  0  0  0  0  0  0  0  0  0  0
   -7.4654   11.8907   -6.4255 H   0  0  0  0  0  0  0  0  0  0  0  0
   -3.6300    8.3313   -1.2205 H   0  0  0  0  0  0  0  0  0  0  0  0
   -1.9546    8.2882   -1.8417 H   0  0  0  0  0  0  0  0  0  0  0  0
   -3.7383   10.7668   -1.6358 H   0  0  0  0  0  0  0  0  0  0  0  0
   -2.3164   10.4301   -0.6405 H   0  0  0  0  0  0  0  0  0  0  0  0
   -0.8632   10.5009   -2.6343 H   0  0  0  0  0  0  0  0  0  0  0  0
   -1.8004   12.0040   -2.5553 H   0  0  0  0  0  0  0  0  0  0  0  0
   -2.0172    9.3653  -10.8676 H   0  0  0  0  0  0  0  0  0  0  0  0
   -4.3735    9.2845  -10.1454 H   0  0  0  0  0  0  0  0  0  0  0  0
   -3.8886   12.8286   -7.8074 H   0  0  0  0  0  0  0  0  0  0  0  0
  1  2  1  0  0  0  0
  2  3  1  0  0  0  0
  2  5  1  0  0  0  0
  3  4  1  0  0  0  0
  5  6  2  0  0  0  0
  5 10  1  0  0  0  0
  6  7  1  0  0  0  0
  7  8  2  0  0  0  0
  8  9  1  0  0  0  0
  9 10  2  0  0  0  0
 10 11  1  0  0  0  0
 11 12  1  0  0  0  0
 11 15  2  0  0  0  0
 12 13  1  0  0  0  0
 12 68  1  0  0  0  0
 13 14  1  0  0  0  0
 15 16  1  0  0  0  0
 15 67  1  0  0  0  0
 16 17  1  0  0  0  0
 17 18  1  0  0  0  0
 17 19  1  0  0  0  0
 17 20  1  0  0  0  0
 20 21  1  0  0  0  0
 21 22  1  0  0  0  0
 22 23  1  0  0  0  0
 22 66  2  0  0  0  0
 23 24  1  0  0  0  0
 23 65  1  0  0  0  0
 24 25  1  0  0  0  0
 25 26  1  0  0  0  0
 25 63  1  0  0  0  0
 26 27  1  0  0  0  0
 26 62  2  0  0  0  0
 27 28  1  0  0  0  0
 27 55  1  0  0  0  0
 28 29  1  0  0  0  0
 29 30  1  0  0  0  0
 29 54  2  0  0  0  0
 30 31  1  0  0  0  0
 30 34  1  0  0  0  0
 31 32  1  0  0  0  0
 31 33  1  0  0  0  0
 34 35  1  0  0  0  0
 34 53  1  0  0  0  0
 35 36  1  0  0  0  0
 35 52  2  0  0  0  0
 36 37  1  0  0  0  0
 36 51  1  0  0  0  0
 36 73  1  0  0  0  0
 37 38  1  0  0  0  0
 38 39  1  0  0  0  0
 39 40  1  0  0  0  0
 39 50  1  0  0  0  0
 40 41  1  0  0  0  0
 40 49  2  0  0  0  0
 42 43  1  0  0  0  0
 43 44  1  0  0  0  0
 43 47  1  0  0  0  0
 43 48  1  0  0  0  0
 44 45  1  0  0  0  0
 44 46  1  0  0  0  0
 50 51  1  0  0  0  0
 55 56  1  0  0  0  0
 56 57  1  0  0  0  0
 56 61  1  0  0  0  0
 57 58  1  0  0  0  0
 58 59  1  0  0  0  0
 58 71  1  0  0  0  0
 59 60  1  0  0  0  0
 60 61  1  0  0  0  0
 63 64  1  0  0  0  0
 64 65  1  0  0  0  0
 67 68  2  0  0  0  0
 67 72  1  0  0  0  0
 68 69  1  0  0  0  0
 69 70  2  0  0  0  0
 70 71  1  0  0  0  0
 71 72  2  0  0  0  0
 41 42  3  0  0  0  0
  1 74  1  0  0  0  0
  1 75  1  0  0  0  0
  1 76  1  0  0  0  0
  2 77  1  0  0  0  0
  4 78  1  0  0  0  0
  4 79  1  0  0  0  0
  4 80  1  0  0  0  0
  7 81  1  0  0  0  0
  8 82  1  0  0  0  0
  9 83  1  0  0  0  0
 13 84  1  0  0  0  0
 13 85  1  0  0  0  0
 14 86  1  0  0  0  0
 14 87  1  0  0  0  0
 14 88  1  0  0  0  0
 16 89  1  0  0  0  0
 16 90  1  0  0  0  0
 18 91  1  0  0  0  0
 18 92  1  0  0  0  0
 18 93  1  0  0  0  0
 19 94  1  0  0  0  0
 19 95  1  0  0  0  0
 19 96  1  0  0  0  0
 20 97  1  0  0  0  0
 20 98  1  0  0  0  0
 23 99  1  0  0  0  0
 24100  1  0  0  0  0
 27101  1  0  0  0  0
 28102  1  0  0  0  0
 30103  1  0  0  0  0
 31104  1  0  0  0  0
 32105  1  0  0  0  0
 32106  1  0  0  0  0
 32107  1  0  0  0  0
 33108  1  0  0  0  0
 33109  1  0  0  0  0
 33110  1  0  0  0  0
 37111  1  0  0  0  0
 37112  1  0  0  0  0
 38113  1  0  0  0  0
 38114  1  0  0  0  0
 45115  1  0  0  0  0
 45116  1  0  0  0  0
 45117  1  0  0  0  0
 46118  1  0  0  0  0
 46119  1  0  0  0  0
 46120  1  0  0  0  0
 47121  1  0  0  0  0
 47122  1  0  0  0  0
 47123  1  0  0  0  0
 48124  1  0  0  0  0
 48125  1  0  0  0  0
 48126  1  0  0  0  0
 50127  1  0  0  0  0
 50128  1  0  0  0  0
 51129  1  0  0  0  0
 51130  1  0  0  0  0
 53131  1  0  0  0  0
 53132  1  0  0  0  0
 53133  1  0  0  0  0
 55134  1  0  0  0  0
 55135  1  0  0  0  0
 56136  1  0  0  0  0
 57137  1  0  0  0  0
 57138  1  0  0  0  0
 59139  1  0  0  0  0
 59140  1  0  0  0  0
 60141  1  0  0  0  0
 60142  1  0  0  0  0
 63143  1  0  0  0  0
 63144  1  0  0  0  0
 64145  1  0  0  0  0
 64146  1  0  0  0  0
 65147  1  0  0  0  0
 65148  1  0  0  0  0
 69149  1  0  0  0  0
 70150  1  0  0  0  0
 72151  1  0  0  0  0
M  END
$$$$
