mol_bioactive_5
     RDKit          3D

151157  0  0  0  0  0  0  0  0999 V2000
   -0.1486   15.6875  -12.6852 C   0  0  0  0  0  0  0  0  0  0  0  0
   -0.1775   15.0859  -11.2771 C   0  0  2  0  0  0  0  0  0  0  0  0
   -0.1867   16.1347  -10.2953 O   0  0  0  0  0  0  0  0  0  0  0  0
   -1.4746   16.7009  -10.0968 C   0  0  0  0  0  0  0  0  0  0  0  0
    1.0394   14.1961  -11.0314 C   0  0  0  0  0  0  0  0  0  0  0  0
    2.2346   14.6498  -11.5205 N   0  0  0  0  0  0  0  0  0  0  0  0
    3.3293   13.8815  -11.3471 C   0  0  0  0  0  0  0  0  0  0  0  0
    3.3128   12.6552  -10.7126 C   0  0  0  0  0  0  0  0  0  0  0  0
    2.0983   12.1937  -10.2169 C   0  0  0  0  0  0  0  0  0  0  0  0
    0.9366   12.9678  -10.3535 C   0  0  0  0  0  0  0  0  0  0  0  0
   -0.3346   12.4295   -9.8574 C   0  0  0  0  0  0  0  0  0  0  0  0
   -1.0347   11.4477  -10.5416 N   0  0  0  0  0  0  0  0  0  0  0  0
   -0.5925   10.7590  -11.7506 C   0  0  0  0  0  0  0  0  0  0  0  0
   -0.0554    9.3677  -11.4598 C   0  0  0  0  0  0  0  0  0  0  0  0
   -1.0971   12.7865   -8.7435 C   0  0  0  0  0  0  0  0  0  0  0  0
   -0.7864   13.8018   -7.6636 C   0  0  0  0  0  0  0  0  0  0  0  0
    0.2898   13.4614   -6.5904 C   0  0  0  0  0  0  0  0  0  0  0  0
    0.0186   14.3621   -5.3588 C   0  0  0  0  0  0  0  0  0  0  0  0
    1.7030   13.8167   -7.0883 C   0  0  0  0  0  0  0  0  0  0  0  0
    0.2853   11.9756   -6.1638 C   0  0  0  0  0  0  0  0  0  0  0  0
   -0.8218   11.6824   -5.3025 O   0  0  0  0  0  0  0  0  0  0  0  0
   -0.9364   10.3614   -4.9924 C   0  0  0  0  0  0  0  0  0  0  0  0
   -1.9013   10.1574   -3.8220 C   0  0  1  0  0  0  0  0  0  0  0  0
   -2.7394    8.9776   -4.1162 N   0  0  0  0  0  0  0  0  0  0  0  0
   -3.5149    8.5737   -2.9989 N   0  0  0  0  0  0  0  0  0  0  0  0
   -4.8323    8.1368   -3.1774 C   0  0  0  0  0  0  0  0  0  0  0  0
   -5.5017    8.5460   -4.5112 C   0  0  1  0  0  0  0  0  0  0  0  0
   -6.6081    7.6364   -4.8022 N   0  0  0  0  0  0  0  0  0  0  0  0
   -6.3278    6.3970   -5.3494 C   0  0  0  0  0  0  0  0  0  0  0  0
   -7.5351    5.4362   -5.4150 C   0  0  2  0  0  0  0  0  0  0  0  0
   -7.1138    3.9686   -5.1412 C   0  0  0  0  0  0  0  0  0  0  0  0
   -8.2912    3.0050   -5.3288 C   0  0  0  0  0  0  0  0  0  0  0  0
   -6.5681    3.8166   -3.7130 C   0  0  0  0  0  0  0  0  0  0  0  0
   -8.2032    5.6192   -6.7296 N   0  0  0  0  0  0  0  0  0  0  0  0
   -9.3184    6.4672   -6.7606 C   0  0  0  0  0  0  0  0  0  0  0  0
  -10.0997    6.6052   -8.0909 C   0  0  0  0  0  0  0  0  0  0  0  0
  -11.1327    7.7383   -7.9915 C   0  0  0  0  0  0  0  0  0  0  0  0
  -12.0047    7.8090   -9.2392 C   0  0  0  0  0  0  0  0  0  0  0  0
  -12.5918    6.5068   -9.5414 N   0  0  0  0  0  0  0  0  0  0  0  0
  -13.9066    6.3140   -9.9529 C   0  0  0  0  0  0  0  0  0  0  0  0
  -14.8357    7.4205   -9.8598 C   0  0  0  0  0  0  0  0  0  0  0  0
  -15.6430    8.3046   -9.7575 C   0  0  0  0  0  0  0  0  0  0  0  0
  -16.6736    9.3625   -9.6119 C   0  0  0  0  0  0  0  0  0  0  0  0
  -17.8397    8.9050   -8.8059 N   0  0  0  0  0  0  0  0  0  0  0  0
  -17.5245    8.6049   -7.4058 C   0  0  0  0  0  0  0  0  0  0  0  0
  -18.5666    7.7722   -9.3898 C   0  0  0  0  0  0  0  0  0  0  0  0
  -16.0121   10.5983   -8.9575 C   0  0  0  0  0  0  0  0  0  0  0  0
  -17.1280    9.8047  -11.0220 C   0  0  0  0  0  0  0  0  0  0  0  0
  -14.3423    5.2452  -10.3660 O   0  0  0  0  0  0  0  0  0  0  0  0
  -11.6528    5.4039   -9.6653 C   0  0  0  0  0  0  0  0  0  0  0  0
  -10.8038    5.2789   -8.4088 C   0  0  0  0  0  0  0  0  0  0  0  0
   -9.7209    7.0267   -5.7350 O   0  0  0  0  0  0  0  0  0  0  0  0
   -7.3959    5.3877   -7.9286 C   0  0  0  0  0  0  0  0  0  0  0  0
   -5.2310    6.1207   -5.8344 O   0  0  0  0  0  0  0  0  0  0  0  0
   -5.9930    9.9937   -4.3832 C   0  0  0  0  0  0  0  0  0  0  0  0
   -5.5456   10.8853   -5.5456 C   0  0  1  0  0  0  0  0  0  0  0  0
   -6.1068   10.4039   -6.9082 C   0  0  0  0  0  0  0  0  0  0  0  0
   -5.9545   11.4474   -7.9425 N   0  0  0  0  0  0  0  0  0  0  0  0
   -6.4370   12.7837   -7.5283 C   0  0  0  0  0  0  0  0  0  0  0  0
   -6.8979   12.8003   -6.0641 C   0  0  0  0  0  0  0  0  0  0  0  0
   -5.9082   12.2435   -5.1955 O   0  0  0  0  0  0  0  0  0  0  0  0
   -5.4697    7.5476   -2.2964 O   0  0  0  0  0  0  0  0  0  0  0  0
   -2.7984    8.3084   -1.7550 C   0  0  0  0  0  0  0  0  0  0  0  0
   -1.9438    9.5133   -1.3759 C   0  0  0  0  0  0  0  0  0  0  0  0
   -1.0686    9.9470   -2.5500 C   0  0  0  0  0  0  0  0  0  0  0  0
   -0.2951    9.4511   -5.5103 O   0  0  0  0  0  0  0  0  0  0  0  0
   -2.3592   12.0989   -8.8711 C   0  0  0  0  0  0  0  0  0  0  0  0
   -2.2849   11.2682   -9.9852 C   0  0  0  0  0  0  0  0  0  0  0  0
   -3.3571   10.4543  -10.3818 C   0  0  0  0  0  0  0  0  0  0  0  0
   -4.5513   10.5384   -9.6626 C   0  0  0  0  0  0  0  0  0  0  0  0
   -4.6975   11.3944   -8.5704 C   0  0  0  0  0  0  0  0  0  0  0  0
   -3.5801   12.1400   -8.1518 C   0  0  0  0  0  0  0  0  0  0  0  0
   -9.2678    6.9172   -9.1341 F   0  0  0  0  0  0  0  0  0  0  0  0
   -1.0871   16.2047  -12.9049 H   0  0  0  0  0  0  0  0  0  0  0  0
    0.6483   16.4335  -12.7850 H   0  0  0  0  0  0  0  0  0  0  0  0
   -0.0049   14.9145  -13.4475 H   0  0  0  0  0  0  0  0  0  0  0  0
   -1.0926   14.4907  -11.1942 H   0  0  0  0  0  0  0  0  0  0  0  0
   -2.1964   15.9324   -9.8030 H   0  0  0  0  0  0  0  0  0  0  0  0
   -1.4019   17.4311   -9.2869 H   0  0  0  0  0  0  0  0  0  0  0  0
   -1.8179   17.2196  -10.9952 H   0  0  0  0  0  0  0  0  0  0  0  0
    4.2510   14.2930  -11.7486 H   0  0  0  0  0  0  0  0  0  0  0  0
    4.2211   12.0743  -10.6012 H   0  0  0  0  0  0  0  0  0  0  0  0
    2.0609   11.2359   -9.7040 H   0  0  0  0  0  0  0  0  0  0  0  0
   -1.4456   10.7091  -12.4366 H   0  0  0  0  0  0  0  0  0  0  0  0
    0.1660   11.3662  -12.2528 H   0  0  0  0  0  0  0  0  0  0  0  0
    0.7994    9.4045  -10.7785 H   0  0  0  0  0  0  0  0  0  0  0  0
   -0.8187    8.7333  -10.9975 H   0  0  0  0  0  0  0  0  0  0  0  0
    0.2689    8.8849  -12.3864 H   0  0  0  0  0  0  0  0  0  0  0  0
   -0.5250   14.7501   -8.1438 H   0  0  0  0  0  0  0  0  0  0  0  0
   -1.7278   14.0178   -7.1430 H   0  0  0  0  0  0  0  0  0  0  0  0
    0.7284   14.1519   -4.5499 H   0  0  0  0  0  0  0  0  0  0  0  0
    0.1131   15.4225   -5.6190 H   0  0  0  0  0  0  0  0  0  0  0  0
   -0.9910   14.2118   -4.9582 H   0  0  0  0  0  0  0  0  0  0  0  0
    2.4204   13.8314   -6.2578 H   0  0  0  0  0  0  0  0  0  0  0  0
    2.0758   13.0781   -7.7948 H   0  0  0  0  0  0  0  0  0  0  0  0
    1.7339   14.8050   -7.5607 H   0  0  0  0  0  0  0  0  0  0  0  0
    0.2860   11.3134   -7.0370 H   0  0  0  0  0  0  0  0  0  0  0  0
    1.1998   11.7622   -5.5935 H   0  0  0  0  0  0  0  0  0  0  0  0
   -2.5511   11.0363   -3.7267 H   0  0  0  0  0  0  0  0  0  0  0  0
   -2.1363    8.1965   -4.4122 H   0  0  0  0  0  0  0  0  0  0  0  0
   -4.7761    8.4393   -5.3217 H   0  0  0  0  0  0  0  0  0  0  0  0
   -7.4074    7.6761   -4.1757 H   0  0  0  0  0  0  0  0  0  0  0  0
   -8.2328    5.7160   -4.6165 H   0  0  0  0  0  0  0  0  0  0  0  0
   -6.3144    3.6650   -5.8266 H   0  0  0  0  0  0  0  0  0  0  0  0
   -9.1352    3.2792   -4.6859 H   0  0  0  0  0  0  0  0  0  0  0  0
   -8.6423    2.9992   -6.3647 H   0  0  0  0  0  0  0  0  0  0  0  0
   -7.9976    1.9812   -5.0792 H   0  0  0  0  0  0  0  0  0  0  0  0
   -7.3200    4.0982   -2.9674 H   0  0  0  0  0  0  0  0  0  0  0  0
   -6.2732    2.7806   -3.5204 H   0  0  0  0  0  0  0  0  0  0  0  0
   -5.6840    4.4415   -3.5544 H   0  0  0  0  0  0  0  0  0  0  0  0
  -11.7795    7.5872   -7.1180 H   0  0  0  0  0  0  0  0  0  0  0  0
  -10.6218    8.6982   -7.8573 H   0  0  0  0  0  0  0  0  0  0  0  0
  -12.7721    8.5749   -9.1014 H   0  0  0  0  0  0  0  0  0  0  0  0
  -11.4083    8.1052  -10.1110 H   0  0  0  0  0  0  0  0  0  0  0  0
  -18.4219    8.2737   -6.8711 H   0  0  0  0  0  0  0  0  0  0  0  0
  -16.7665    7.8215   -7.3006 H   0  0  0  0  0  0  0  0  0  0  0  0
  -17.1861    9.4965   -6.8698 H   0  0  0  0  0  0  0  0  0  0  0  0
  -19.4500    7.5347   -8.7857 H   0  0  0  0  0  0  0  0  0  0  0  0
  -18.9570    8.0060  -10.3845 H   0  0  0  0  0  0  0  0  0  0  0  0
  -17.9555    6.8646   -9.4542 H   0  0  0  0  0  0  0  0  0  0  0  0
  -15.4986   10.3509   -8.0213 H   0  0  0  0  0  0  0  0  0  0  0  0
  -15.2474   11.0328   -9.6138 H   0  0  0  0  0  0  0  0  0  0  0  0
  -16.7500   11.3811   -8.7491 H   0  0  0  0  0  0  0  0  0  0  0  0
  -17.9403   10.5391  -10.9664 H   0  0  0  0  0  0  0  0  0  0  0  0
  -16.3027   10.2721  -11.5756 H   0  0  0  0  0  0  0  0  0  0  0  0
  -17.4661    8.9643  -11.6387 H   0  0  0  0  0  0  0  0  0  0  0  0
  -12.1744    4.4593   -9.8452 H   0  0  0  0  0  0  0  0  0  0  0  0
  -11.0250    5.5987  -10.5428 H   0  0  0  0  0  0  0  0  0  0  0  0
  -10.0876    4.4660   -8.5544 H   0  0  0  0  0  0  0  0  0  0  0  0
  -11.4395    4.9869   -7.5626 H   0  0  0  0  0  0  0  0  0  0  0  0
   -6.6677    4.5918   -7.7616 H   0  0  0  0  0  0  0  0  0  0  0  0
   -8.0152    5.0851   -8.7719 H   0  0  0  0  0  0  0  0  0  0  0  0
   -6.8766    6.3154   -8.1890 H   0  0  0  0  0  0  0  0  0  0  0  0
   -7.0873   10.0378   -4.2979 H   0  0  0  0  0  0  0  0  0  0  0  0
   -5.6248   10.4531   -3.4543 H   0  0  0  0  0  0  0  0  0  0  0  0
   -4.4517   10.8818   -5.5916 H   0  0  0  0  0  0  0  0  0  0  0  0
   -5.6453    9.4576   -7.2167 H   0  0  0  0  0  0  0  0  0  0  0  0
   -7.1798   10.1947   -6.8133 H   0  0  0  0  0  0  0  0  0  0  0  0
   -5.6842   13.5645   -7.6739 H   0  0  0  0  0  0  0  0  0  0  0  0
   -7.2839   13.0545   -8.1701 H   0  0  0  0  0  0  0  0  0  0  0  0
   -7.0785   13.8333   -5.7488 H   0  0  0  0  0  0  0  0  0  0  0  0
   -7.8392   12.2575   -5.9286 H   0  0  0  0  0  0  0  0  0  0  0  0
   -3.5026    8.0805   -0.9470 H   0  0  0  0  0  0  0  0  0  0  0  0
   -2.1761    7.4191   -1.9139 H   0  0  0  0  0  0  0  0  0  0  0  0
   -2.5978   10.3472   -1.0921 H   0  0  0  0  0  0  0  0  0  0  0  0
   -1.3234    9.2766   -0.5063 H   0  0  0  0  0  0  0  0  0  0  0  0
   -0.2954    9.1869   -2.7196 H   0  0  0  0  0  0  0  0  0  0  0  0
   -0.5399   10.8727   -2.2939 H   0  0  0  0  0  0  0  0  0  0  0  0
   -3.2891    9.7940  -11.2395 H   0  0  0  0  0  0  0  0  0  0  0  0
   -5.4002    9.9389   -9.9835 H   0  0  0  0  0  0  0  0  0  0  0  0
   -3.6494   12.7746   -7.2746 H   0  0  0  0  0  0  0  0  0  0  0  0
  1  2  1  0
  2  3  1  0
  2  5  1  0
  3  4  1  0
  5  6  2  0
  5 10  1  0
  6  7  1  0
  7  8  2  0
  8  9  1  0
  9 10  2  0
 10 11  1  0
 11 12  1  0
 11 15  2  0
 12 13  1  0
 12 68  1  0
 13 14  1  0
 15 16  1  0
 15 67  1  0
 16 17  1  0
 17 18  1  0
 17 19  1  0
 17 20  1  0
 20 21  1  0
 21 22  1  0
 22 23  1  0
 22 66  2  0
 23 24  1  0
 23 65  1  0
 24 25  1  0
 25 26  1  0
 25 63  1  0
 26 27  1  0
 26 62  2  0
 27 28  1  0
 27 55  1  0
 28 29  1  0
 29 30  1  0
 29 54  2  0
 30 31  1  0
 30 34  1  0
 31 32  1  0
 31 33  1  0
 34 35  1  0
 34 53  1  0
 35 36  1  0
 35 52  2  0
 36 37  1  0
 36 51  1  0
 36 73  1  0
 37 38  1  0
 38 39  1  0
 39 40  1  0
 39 50  1  0
 40 41  1  0
 40 49  2  0
 42 43  1  0
 43 44  1  0
 43 47  1  0
 43 48  1  0
 44 45  1  0
 44 46  1  0
 50 51  1  0
 55 56  1  0
 56 57  1  0
 56 61  1  0
 57 58  1  0
 58 59  1  0
 58 71  1  0
 59 60  1  0
 60 61  1  0
 63 64  1  0
 64 65  1  0
 67 68  2  0
 67 72  1  0
 68 69  1  0
 69 70  2  0
 70 71  1  0
 71 72  2  0
 41 42  3  0
  1 74  1  0
  1 75  1  0
  1 76  1  0
  2 77  1  6
  4 78  1  0
  4 79  1  0
  4 80  1  0
  7 81  1  0
  8 82  1  0
  9 83  1  0
 13 84  1  0
 13 85  1  0
 14 86  1  0
 14 87  1  0
 14 88  1  0
 16 89  1  0
 16 90  1  0
 18 91  1  0
 18 92  1  0
 18 93  1  0
 19 94  1  0
 19 95  1  0
 19 96  1  0
 20 97  1  0
 20 98  1  0
 23 99  1  1
 24100  1  0
 27101  1  6
 28102  1  0
 30103  1  1
 31104  1  0
 32105  1  0
 32106  1  0
 32107  1  0
 33108  1  0
 33109  1  0
 33110  1  0
 37111  1  0
 37112  1  0
 38113  1  0
 38114  1  0
 45115  1  0
 45116  1  0
 45117  1  0
 46118  1  0
 46119  1  0
 46120  1  0
 47121  1  0
 47122  1  0
 47123  1  0
 48124  1  0
 48125  1  0
 48126  1  0
 50127  1  0
 50128  1  0
 51129  1  0
 51130  1  0
 53131  1  0
 53132  1  0
 53133  1  0
 55134  1  0
 55135  1  0
 56136  1  6
 57137  1  0
 57138  1  0
 59139  1  0
 59140  1  0
 60141  1  0
 60142  1  0
 63143  1  0
 63144  1  0
 64145  1  0
 64146  1  0
 65147  1  0
 65148  1  0
 69149  1  0
 70150  1  0
 72151  1  0
M  END
$$$$
