mol_bioactive_24
     RDKit          3D

151157  0  0  0  0  0  0  0  0999 V2000
   -0.2458   15.0808  -13.0120 C   0  0  0  0  0  0  0  0  0  0  0  0
   -0.2417   14.8303  -11.5010 C   0  0  2  0  0  0  0  0  0  0  0  0
   -0.2717   16.0784  -10.7898 O   0  0  0  0  0  0  0  0  0  0  0  0
   -1.5743   16.6316  -10.6839 C   0  0  0  0  0  0  0  0  0  0  0  0
    1.0107   14.0616  -11.0893 C   0  0  0  0  0  0  0  0  0  0  0  0
    2.1997   14.5447  -11.5639 N   0  0  0  0  0  0  0  0  0  0  0  0
    3.3321   13.8845  -11.2471 C   0  0  0  0  0  0  0  0  0  0  0  0
    3.3592   12.7374  -10.4805 C   0  0  0  0  0  0  0  0  0  0  0  0
    2.1520   12.2465   -9.9975 C   0  0  0  0  0  0  0  0  0  0  0  0
    0.9503   12.9099  -10.2855 C   0  0  0  0  0  0  0  0  0  0  0  0
   -0.3073   12.3379   -9.7900 C   0  0  0  0  0  0  0  0  0  0  0  0
   -0.9050   11.2352  -10.3819 N   0  0  0  0  0  0  0  0  0  0  0  0
   -0.3561   10.4430  -11.4779 C   0  0  0  0  0  0  0  0  0  0  0  0
    0.2812    9.1519  -10.9921 C   0  0  0  0  0  0  0  0  0  0  0  0
   -1.1420   12.7593   -8.7534 C   0  0  0  0  0  0  0  0  0  0  0  0
   -0.9499   13.9092   -7.7904 C   0  0  0  0  0  0  0  0  0  0  0  0
    0.0890   13.7605   -6.6368 C   0  0  0  0  0  0  0  0  0  0  0  0
   -0.3568   14.6885   -5.4818 C   0  0  0  0  0  0  0  0  0  0  0  0
    1.4758   14.2566   -7.0905 C   0  0  0  0  0  0  0  0  0  0  0  0
    0.2444   12.3106   -6.1163 C   0  0  0  0  0  0  0  0  0  0  0  0
   -0.8553   11.9152   -5.2839 O   0  0  0  0  0  0  0  0  0  0  0  0
   -0.8050   10.6034   -4.9072 C   0  0  0  0  0  0  0  0  0  0  0  0
   -1.8303   10.3208   -3.8028 C   0  0  1  0  0  0  0  0  0  0  0  0
   -2.3156    8.9331   -3.9389 N   0  0  0  0  0  0  0  0  0  0  0  0
   -3.1855    8.5701   -2.8829 N   0  0  0  0  0  0  0  0  0  0  0  0
   -4.4524    8.0089   -3.0610 C   0  0  0  0  0  0  0  0  0  0  0  0
   -5.1817    8.3362   -4.3786 C   0  0  1  0  0  0  0  0  0  0  0  0
   -6.2716    7.3799   -4.5650 N   0  0  0  0  0  0  0  0  0  0  0  0
   -6.3255    6.5290   -5.6479 C   0  0  0  0  0  0  0  0  0  0  0  0
   -7.5325    5.5556   -5.6426 C   0  0  2  0  0  0  0  0  0  0  0  0
   -7.1652    4.1490   -5.0978 C   0  0  0  0  0  0  0  0  0  0  0  0
   -8.4173    3.2634   -5.0076 C   0  0  0  0  0  0  0  0  0  0  0  0
   -6.5121    4.2182   -3.7126 C   0  0  0  0  0  0  0  0  0  0  0  0
   -8.1200    5.5542   -7.0081 N   0  0  0  0  0  0  0  0  0  0  0  0
   -9.0840    6.5288   -7.2849 C   0  0  0  0  0  0  0  0  0  0  0  0
   -9.8092    6.5294   -8.6570 C   0  0  0  0  0  0  0  0  0  0  0  0
  -10.7459    7.7461   -8.7509 C   0  0  0  0  0  0  0  0  0  0  0  0
  -11.5681    7.7277  -10.0335 C   0  0  0  0  0  0  0  0  0  0  0  0
  -12.2507    6.4489  -10.1907 N   0  0  0  0  0  0  0  0  0  0  0  0
  -13.5875    6.2971  -10.5375 C   0  0  0  0  0  0  0  0  0  0  0  0
  -14.4476    7.4597  -10.5478 C   0  0  0  0  0  0  0  0  0  0  0  0
  -15.2186    8.3815  -10.5117 C   0  0  0  0  0  0  0  0  0  0  0  0
  -16.2212    9.4693  -10.4226 C   0  0  0  0  0  0  0  0  0  0  0  0
  -16.0036   10.3392   -9.2325 N   0  0  0  0  0  0  0  0  0  0  0  0
  -16.1456    9.6453   -7.9481 C   0  0  0  0  0  0  0  0  0  0  0  0
  -14.7397   11.0807   -9.2472 C   0  0  0  0  0  0  0  0  0  0  0  0
  -17.6305    8.8283  -10.3702 C   0  0  0  0  0  0  0  0  0  0  0  0
  -16.1710   10.3008  -11.7248 C   0  0  0  0  0  0  0  0  0  0  0  0
  -14.1013    5.2144  -10.8017 O   0  0  0  0  0  0  0  0  0  0  0  0
  -11.3953    5.2737  -10.1507 C   0  0  0  0  0  0  0  0  0  0  0  0
  -10.6066    5.2356   -8.8478 C   0  0  0  0  0  0  0  0  0  0  0  0
   -9.3976    7.3545   -6.4186 O   0  0  0  0  0  0  0  0  0  0  0  0
   -7.4465    4.7671   -8.0414 C   0  0  0  0  0  0  0  0  0  0  0  0
   -5.4899    6.5668   -6.5491 O   0  0  0  0  0  0  0  0  0  0  0  0
   -5.7532    9.7584   -4.2781 C   0  0  0  0  0  0  0  0  0  0  0  0
   -5.4376   10.6393   -5.4885 C   0  0  1  0  0  0  0  0  0  0  0  0
   -5.9893   10.0797   -6.8239 C   0  0  0  0  0  0  0  0  0  0  0  0
   -5.8826   11.1041   -7.8848 N   0  0  0  0  0  0  0  0  0  0  0  0
   -6.4596   12.4141   -7.5130 C   0  0  0  0  0  0  0  0  0  0  0  0
   -6.9307   12.4370   -6.0504 C   0  0  0  0  0  0  0  0  0  0  0  0
   -5.9125   11.9688   -5.1607 O   0  0  0  0  0  0  0  0  0  0  0  0
   -5.0433    7.3899   -2.1676 O   0  0  0  0  0  0  0  0  0  0  0  0
   -2.5515    8.5790   -1.5632 C   0  0  0  0  0  0  0  0  0  0  0  0
   -2.0165    9.9846   -1.2817 C   0  0  0  0  0  0  0  0  0  0  0  0
   -1.1432   10.4908   -2.4368 C   0  0  0  0  0  0  0  0  0  0  0  0
   -0.0126    9.7803   -5.3519 O   0  0  0  0  0  0  0  0  0  0  0  0
   -2.3380   11.9608   -8.8357 C   0  0  0  0  0  0  0  0  0  0  0  0
   -2.1586   11.0214   -9.8462 C   0  0  0  0  0  0  0  0  0  0  0  0
   -3.1515   10.0825  -10.1741 C   0  0  0  0  0  0  0  0  0  0  0  0
   -4.3689   10.1456   -9.4902 C   0  0  0  0  0  0  0  0  0  0  0  0
   -4.6160   11.0997   -8.5006 C   0  0  0  0  0  0  0  0  0  0  0  0
   -3.5771   11.9773   -8.1503 C   0  0  0  0  0  0  0  0  0  0  0  0
   -8.9220    6.6411   -9.6948 F   0  0  0  0  0  0  0  0  0  0  0  0
   -1.1980   15.5171  -13.3330 H   0  0  0  0  0  0  0  0  0  0  0  0
    0.5361   15.7930  -13.3027 H   0  0  0  0  0  0  0  0  0  0  0  0
   -0.0971   14.1493  -13.5704 H   0  0  0  0  0  0  0  0  0  0  0  0
   -1.1398   14.2524  -11.2591 H   0  0  0  0  0  0  0  0  0  0  0  0
   -2.2274   15.9677  -10.1083 H   0  0  0  0  0  0  0  0  0  0  0  0
   -1.4968   17.5842  -10.1515 H   0  0  0  0  0  0  0  0  0  0  0  0
   -2.0076   16.8248  -11.6692 H   0  0  0  0  0  0  0  0  0  0  0  0
    4.2451   14.3184  -11.6440 H   0  0  0  0  0  0  0  0  0  0  0  0
    4.2956   12.2424  -10.2567 H   0  0  0  0  0  0  0  0  0  0  0  0
    2.1497   11.3530   -9.3797 H   0  0  0  0  0  0  0  0  0  0  0  0
   -1.1724   10.2318  -12.1761 H   0  0  0  0  0  0  0  0  0  0  0  0
    0.3696   11.0484  -12.0284 H   0  0  0  0  0  0  0  0  0  0  0  0
    1.1167    9.3505  -10.3150 H   0  0  0  0  0  0  0  0  0  0  0  0
   -0.4392    8.5281  -10.4525 H   0  0  0  0  0  0  0  0  0  0  0  0
    0.6620    8.5749  -11.8402 H   0  0  0  0  0  0  0  0  0  0  0  0
   -0.7199   14.8100   -8.3710 H   0  0  0  0  0  0  0  0  0  0  0  0
   -1.9292   14.1233   -7.3428 H   0  0  0  0  0  0  0  0  0  0  0  0
    0.3404   14.6348   -4.6376 H   0  0  0  0  0  0  0  0  0  0  0  0
   -0.3995   15.7310   -5.8147 H   0  0  0  0  0  0  0  0  0  0  0  0
   -1.3519   14.4231   -5.1066 H   0  0  0  0  0  0  0  0  0  0  0  0
    2.1451   14.3931   -6.2329 H   0  0  0  0  0  0  0  0  0  0  0  0
    1.9636   13.5399   -7.7486 H   0  0  0  0  0  0  0  0  0  0  0  0
    1.4121   15.2191   -7.6103 H   0  0  0  0  0  0  0  0  0  0  0  0
    0.3644   11.6079   -6.9496 H   0  0  0  0  0  0  0  0  0  0  0  0
    1.1490   12.2463   -5.4977 H   0  0  0  0  0  0  0  0  0  0  0  0
   -2.6744   11.0127   -3.9071 H   0  0  0  0  0  0  0  0  0  0  0  0
   -2.6571    8.7376   -4.8784 H   0  0  0  0  0  0  0  0  0  0  0  0
   -4.4848    8.2331   -5.2118 H   0  0  0  0  0  0  0  0  0  0  0  0
   -6.7752    7.1189   -3.7212 H   0  0  0  0  0  0  0  0  0  0  0  0
   -8.2817    5.9759   -4.9591 H   0  0  0  0  0  0  0  0  0  0  0  0
   -6.4471    3.6581   -5.7657 H   0  0  0  0  0  0  0  0  0  0  0  0
   -9.1842    3.7290   -4.3790 H   0  0  0  0  0  0  0  0  0  0  0  0
   -8.8521    3.0802   -5.9938 H   0  0  0  0  0  0  0  0  0  0  0  0
   -8.1729    2.2889   -4.5722 H   0  0  0  0  0  0  0  0  0  0  0  0
   -7.1495    4.7459   -2.9953 H   0  0  0  0  0  0  0  0  0  0  0  0
   -6.3266    3.2112   -3.3214 H   0  0  0  0  0  0  0  0  0  0  0  0
   -5.5442    4.7262   -3.7549 H   0  0  0  0  0  0  0  0  0  0  0  0
  -11.4298    7.7619   -7.8928 H   0  0  0  0  0  0  0  0  0  0  0  0
  -10.1609    8.6723   -8.7177 H   0  0  0  0  0  0  0  0  0  0  0  0
  -12.2729    8.5632  -10.0291 H   0  0  0  0  0  0  0  0  0  0  0  0
  -10.9171    7.8596  -10.9073 H   0  0  0  0  0  0  0  0  0  0  0  0
  -16.0128   10.3484   -7.1174 H   0  0  0  0  0  0  0  0  0  0  0  0
  -17.1502    9.2328   -7.8170 H   0  0  0  0  0  0  0  0  0  0  0  0
  -15.4143    8.8400   -7.8193 H   0  0  0  0  0  0  0  0  0  0  0  0
  -14.6682   11.7321   -8.3677 H   0  0  0  0  0  0  0  0  0  0  0  0
  -13.8643   10.4219   -9.2431 H   0  0  0  0  0  0  0  0  0  0  0  0
  -14.6699   11.7510  -10.1080 H   0  0  0  0  0  0  0  0  0  0  0  0
  -17.7161    8.0737   -9.5808 H   0  0  0  0  0  0  0  0  0  0  0  0
  -18.4077    9.5849  -10.2089 H   0  0  0  0  0  0  0  0  0  0  0  0
  -17.8668    8.3117  -11.3085 H   0  0  0  0  0  0  0  0  0  0  0  0
  -16.8716   11.1443  -11.6856 H   0  0  0  0  0  0  0  0  0  0  0  0
  -15.1708   10.6950  -11.9356 H   0  0  0  0  0  0  0  0  0  0  0  0
  -16.4460    9.6912  -12.5960 H   0  0  0  0  0  0  0  0  0  0  0  0
  -11.9783    4.3540  -10.2479 H   0  0  0  0  0  0  0  0  0  0  0  0
  -10.7193    5.3215  -11.0149 H   0  0  0  0  0  0  0  0  0  0  0  0
   -9.9542    4.3605   -8.8756 H   0  0  0  0  0  0  0  0  0  0  0  0
  -11.2962    5.0987   -8.0030 H   0  0  0  0  0  0  0  0  0  0  0  0
   -7.9436    3.7973   -8.1164 H   0  0  0  0  0  0  0  0  0  0  0  0
   -7.4702    5.2606   -9.0113 H   0  0  0  0  0  0  0  0  0  0  0  0
   -6.3995    4.5964   -7.7851 H   0  0  0  0  0  0  0  0  0  0  0  0
   -6.8431    9.7368   -4.1257 H   0  0  0  0  0  0  0  0  0  0  0  0
   -5.3632   10.2728   -3.3876 H   0  0  0  0  0  0  0  0  0  0  0  0
   -4.3489   10.7337   -5.5703 H   0  0  0  0  0  0  0  0  0  0  0  0
   -5.4774    9.1548   -7.1064 H   0  0  0  0  0  0  0  0  0  0  0  0
   -7.0487    9.8179   -6.7139 H   0  0  0  0  0  0  0  0  0  0  0  0
   -5.7612   13.2437   -7.6684 H   0  0  0  0  0  0  0  0  0  0  0  0
   -7.3181   12.6118   -8.1665 H   0  0  0  0  0  0  0  0  0  0  0  0
   -7.1839   13.4617   -5.7603 H   0  0  0  0  0  0  0  0  0  0  0  0
   -7.8338   11.8307   -5.9099 H   0  0  0  0  0  0  0  0  0  0  0  0
   -3.2650    8.2880   -0.7837 H   0  0  0  0  0  0  0  0  0  0  0  0
   -1.7393    7.8408   -1.5696 H   0  0  0  0  0  0  0  0  0  0  0  0
   -2.8632   10.6704   -1.1525 H   0  0  0  0  0  0  0  0  0  0  0  0
   -1.4461    9.9907   -0.3461 H   0  0  0  0  0  0  0  0  0  0  0  0
   -0.1891    9.9465   -2.4243 H   0  0  0  0  0  0  0  0  0  0  0  0
   -0.8969   11.5470   -2.2725 H   0  0  0  0  0  0  0  0  0  0  0  0
   -3.0031    9.3389  -10.9481 H   0  0  0  0  0  0  0  0  0  0  0  0
   -5.1561    9.4432   -9.7571 H   0  0  0  0  0  0  0  0  0  0  0  0
   -3.7129   12.6928   -7.3470 H   0  0  0  0  0  0  0  0  0  0  0  0
  1  2  1  0
  2  3  1  0
  2  5  1  0
  3  4  1  0
  5  6  2  0
  5 10  1  0
  6  7  1  0
  7  8  2  0
  8  9  1  0
  9 10  2  0
 10 11  1  0
 11 12  1  0
 11 15  2  0
 12 13  1  0
 12 68  1  0
 13 14  1  0
 15 16  1  0
 15 67  1  0
 16 17  1  0
 17 18  1  0
 17 19  1  0
 17 20  1  0
 20 21  1  0
 21 22  1  0
 22 23  1  0
 22 66  2  0
 23 24  1  0
 23 65  1  0
 24 25  1  0
 25 26  1  0
 25 63  1  0
 26 27  1  0
 26 62  2  0
 27 28  1  0
 27 55  1  0
 28 29  1  0
 29 30  1  0
 29 54  2  0
 30 31  1  0
 30 34  1  0
 31 32  1  0
 31 33  1  0
 34 35  1  0
 34 53  1  0
 35 36  1  0
 35 52  2  0
 36 37  1  0
 36 51  1  0
 36 73  1  0
 37 38  1  0
 38 39  1  0
 39 40  1  0
 39 50  1  0
 40 41  1  0
 40 49  2  0
 42 43  1  0
 43 44  1  0
 43 47  1  0
 43 48  1  0
 44 45  1  0
 44 46  1  0
 50 51  1  0
 55 56  1  0
 56 57  1  0
 56 61  1  0
 57 58  1  0
 58 59  1  0
 58 71  1  0
 59 60  1  0
 60 61  1  0
 63 64  1  0
 64 65  1  0
 67 68  2  0
 67 72  1  0
 68 69  1  0
 69 70  2  0
 70 71  1  0
 71 72  2  0
 41 42  3  0
  1 74  1  0
  1 75  1  0
  1 76  1  0
  2 77  1  6
  4 78  1  0
  4 79  1  0
  4 80  1  0
  7 81  1  0
  8 82  1  0
  9 83  1  0
 13 84  1  0
 13 85  1  0
 14 86  1  0
 14 87  1  0
 14 88  1  0
 16 89  1  0
 16 90  1  0
 18 91  1  0
 18 92  1  0
 18 93  1  0
 19 94  1  0
 19 95  1  0
 19 96  1  0
 20 97  1  0
 20 98  1  0
 23 99  1  1
 24100  1  0
 27101  1  6
 28102  1  0
 30103  1  1
 31104  1  0
 32105  1  0
 32106  1  0
 32107  1  0
 33108  1  0
 33109  1  0
 33110  1  0
 37111  1  0
 37112  1  0
 38113  1  0
 38114  1  0
 45115  1  0
 45116  1  0
 45117  1  0
 46118  1  0
 46119  1  0
 46120  1  0
 47121  1  0
 47122  1  0
 47123  1  0
 48124  1  0
 48125  1  0
 48126  1  0
 50127  1  0
 50128  1  0
 51129  1  0
 51130  1  0
 53131  1  0
 53132  1  0
 53133  1  0
 55134  1  0
 55135  1  0
 56136  1  6
 57137  1  0
 57138  1  0
 59139  1  0
 59140  1  0
 60141  1  0
 60142  1  0
 63143  1  0
 63144  1  0
 64145  1  0
 64146  1  0
 65147  1  0
 65148  1  0
 69149  1  0
 70150  1  0
 72151  1  0
M  END
$$$$
