mol_bioactive_15
     RDKit          3D

151157  0  0  0  0  0  0  0  0999 V2000
    0.1601   15.4445  -12.9340 C   0  0  0  0  0  0  0  0  0  0  0  0
   -0.0012   14.7571  -11.5743 C   0  0  2  0  0  0  0  0  0  0  0  0
   -0.2657   15.7513  -10.5730 O   0  0  0  0  0  0  0  0  0  0  0  0
   -1.6460   16.0706  -10.4632 C   0  0  0  0  0  0  0  0  0  0  0  0
    1.2458   13.9655  -11.1870 C   0  0  0  0  0  0  0  0  0  0  0  0
    2.4417   14.4434  -11.6449 N   0  0  0  0  0  0  0  0  0  0  0  0
    3.5620   13.7446  -11.3678 C   0  0  0  0  0  0  0  0  0  0  0  0
    3.5688   12.5621  -10.6556 C   0  0  0  0  0  0  0  0  0  0  0  0
    2.3536   12.0768  -10.1880 C   0  0  0  0  0  0  0  0  0  0  0  0
    1.1663   12.7856  -10.4272 C   0  0  0  0  0  0  0  0  0  0  0  0
   -0.1011   12.2131   -9.9629 C   0  0  0  0  0  0  0  0  0  0  0  0
   -0.7480   11.2050  -10.6619 N   0  0  0  0  0  0  0  0  0  0  0  0
   -0.2470   10.5362  -11.8587 C   0  0  0  0  0  0  0  0  0  0  0  0
    0.3508    9.1739  -11.5509 C   0  0  0  0  0  0  0  0  0  0  0  0
   -0.9009   12.5420   -8.8678 C   0  0  0  0  0  0  0  0  0  0  0  0
   -0.6528   13.5667   -7.7801 C   0  0  0  0  0  0  0  0  0  0  0  0
    0.3766   13.2432   -6.6559 C   0  0  0  0  0  0  0  0  0  0  0  0
    0.0101   14.1087   -5.4245 C   0  0  0  0  0  0  0  0  0  0  0  0
    1.7969   13.6617   -7.0784 C   0  0  0  0  0  0  0  0  0  0  0  0
    0.4168   11.7521   -6.2495 C   0  0  0  0  0  0  0  0  0  0  0  0
   -0.7145   11.3880   -5.4464 O   0  0  0  0  0  0  0  0  0  0  0  0
   -0.7043   10.0773   -5.0565 C   0  0  0  0  0  0  0  0  0  0  0  0
   -1.7423    9.8487   -3.9526 C   0  0  1  0  0  0  0  0  0  0  0  0
   -2.2854    8.4840   -4.0519 N   0  0  0  0  0  0  0  0  0  0  0  0
   -3.1942    8.1975   -3.0110 N   0  0  0  0  0  0  0  0  0  0  0  0
   -4.5614    7.9613   -3.1784 C   0  0  0  0  0  0  0  0  0  0  0  0
   -5.1890    8.3715   -4.5263 C   0  0  1  0  0  0  0  0  0  0  0  0
   -6.4164    7.6139   -4.7416 N   0  0  0  0  0  0  0  0  0  0  0  0
   -6.4243    6.4158   -5.4238 C   0  0  0  0  0  0  0  0  0  0  0  0
   -7.8129    5.7310   -5.4622 C   0  0  2  0  0  0  0  0  0  0  0  0
   -7.7268    4.2569   -4.9905 C   0  0  0  0  0  0  0  0  0  0  0  0
   -9.0962    3.5729   -5.0601 C   0  0  0  0  0  0  0  0  0  0  0  0
   -7.2010    4.1724   -3.5491 C   0  0  0  0  0  0  0  0  0  0  0  0
   -8.3700    5.9384   -6.8264 N   0  0  0  0  0  0  0  0  0  0  0  0
   -8.9499    7.1967   -7.0605 C   0  0  0  0  0  0  0  0  0  0  0  0
   -9.4457    7.5486   -8.4831 C   0  0  0  0  0  0  0  0  0  0  0  0
   -9.5345    9.0739   -8.6521 C   0  0  0  0  0  0  0  0  0  0  0  0
  -10.1343    9.4197  -10.0094 C   0  0  0  0  0  0  0  0  0  0  0  0
  -11.4367    8.7723  -10.1370 N   0  0  0  0  0  0  0  0  0  0  0  0
  -12.6535    9.4399  -10.0665 C   0  0  0  0  0  0  0  0  0  0  0  0
  -12.6410   10.8866  -10.0445 C   0  0  0  0  0  0  0  0  0  0  0  0
  -12.6150   12.0893  -10.0309 C   0  0  0  0  0  0  0  0  0  0  0  0
  -12.5568   13.5712  -10.0295 C   0  0  0  0  0  0  0  0  0  0  0  0
  -13.8102   14.1916   -9.5192 N   0  0  0  0  0  0  0  0  0  0  0  0
  -14.0911   13.9114   -8.1080 C   0  0  0  0  0  0  0  0  0  0  0  0
  -15.0017   13.8787  -10.3168 C   0  0  0  0  0  0  0  0  0  0  0  0
  -11.3412   14.0050   -9.1737 C   0  0  0  0  0  0  0  0  0  0  0  0
  -12.2593   14.0500  -11.4718 C   0  0  0  0  0  0  0  0  0  0  0  0
  -13.7420    8.8785  -10.0188 O   0  0  0  0  0  0  0  0  0  0  0  0
  -11.4075    7.3189  -10.0512 C   0  0  0  0  0  0  0  0  0  0  0  0
  -10.8092    6.8833   -8.7186 C   0  0  0  0  0  0  0  0  0  0  0  0
   -9.1311    7.9911   -6.1295 O   0  0  0  0  0  0  0  0  0  0  0  0
   -7.7939    5.1677   -7.9258 C   0  0  0  0  0  0  0  0  0  0  0  0
   -5.4446    5.9931   -6.0341 O   0  0  0  0  0  0  0  0  0  0  0  0
   -5.5257    9.8671   -4.4626 C   0  0  0  0  0  0  0  0  0  0  0  0
   -5.1713   10.6387   -5.7335 C   0  0  1  0  0  0  0  0  0  0  0  0
   -5.7842   10.0386   -7.0239 C   0  0  0  0  0  0  0  0  0  0  0  0
   -5.7113   11.0016   -8.1443 N   0  0  0  0  0  0  0  0  0  0  0  0
   -6.2606   12.3387   -7.8113 C   0  0  0  0  0  0  0  0  0  0  0  0
   -6.6178   12.4631   -6.3211 C   0  0  0  0  0  0  0  0  0  0  0  0
   -5.5388   12.0208   -5.4886 O   0  0  0  0  0  0  0  0  0  0  0  0
   -5.2833    7.5610   -2.2567 O   0  0  0  0  0  0  0  0  0  0  0  0
   -2.5858    8.2048   -1.6800 C   0  0  0  0  0  0  0  0  0  0  0  0
   -1.9778    9.5882   -1.4277 C   0  0  0  0  0  0  0  0  0  0  0  0
   -1.0603   10.0128   -2.5826 C   0  0  0  0  0  0  0  0  0  0  0  0
    0.0680    9.2283   -5.4839 O   0  0  0  0  0  0  0  0  0  0  0  0
   -2.1321   11.8054   -9.0233 C   0  0  0  0  0  0  0  0  0  0  0  0
   -1.9987   10.9701  -10.1286 C   0  0  0  0  0  0  0  0  0  0  0  0
   -3.0263   10.1059  -10.5365 C   0  0  0  0  0  0  0  0  0  0  0  0
   -4.2376   10.1361   -9.8368 C   0  0  0  0  0  0  0  0  0  0  0  0
   -4.4429   10.9992   -8.7603 C   0  0  0  0  0  0  0  0  0  0  0  0
   -3.3702   11.8057   -8.3339 C   0  0  0  0  0  0  0  0  0  0  0  0
   -8.5855    7.1087   -9.4573 F   0  0  0  0  0  0  0  0  0  0  0  0
    0.9093   16.2438  -12.8908 H   0  0  0  0  0  0  0  0  0  0  0  0
    0.4526   14.7308  -13.7114 H   0  0  0  0  0  0  0  0  0  0  0  0
   -0.7764   15.9181  -13.2466 H   0  0  0  0  0  0  0  0  0  0  0  0
   -0.8508   14.0695  -11.6571 H   0  0  0  0  0  0  0  0  0  0  0  0
   -1.7498   16.8835   -9.7405 H   0  0  0  0  0  0  0  0  0  0  0  0
   -2.0549   16.4046  -11.4202 H   0  0  0  0  0  0  0  0  0  0  0  0
   -2.2069   15.2074  -10.0966 H   0  0  0  0  0  0  0  0  0  0  0  0
    4.4831   14.1714  -11.7553 H   0  0  0  0  0  0  0  0  0  0  0  0
    4.4935   12.0319  -10.4656 H   0  0  0  0  0  0  0  0  0  0  0  0
    2.3304   11.1504   -9.6177 H   0  0  0  0  0  0  0  0  0  0  0  0
   -1.0799   10.4441  -12.5642 H   0  0  0  0  0  0  0  0  0  0  0  0
    0.4933   11.1791  -12.3434 H   0  0  0  0  0  0  0  0  0  0  0  0
    1.1474    9.2455  -10.8035 H   0  0  0  0  0  0  0  0  0  0  0  0
   -0.4090    8.4887  -11.1627 H   0  0  0  0  0  0  0  0  0  0  0  0
    0.7723    8.7332  -12.4596 H   0  0  0  0  0  0  0  0  0  0  0  0
   -0.3801   14.5144   -8.2551 H   0  0  0  0  0  0  0  0  0  0  0  0
   -1.6213   13.7729   -7.3068 H   0  0  0  0  0  0  0  0  0  0  0  0
    0.6934   13.9188   -4.5884 H   0  0  0  0  0  0  0  0  0  0  0  0
    0.0661   15.1775   -5.6639 H   0  0  0  0  0  0  0  0  0  0  0  0
   -1.0069   13.9049   -5.0711 H   0  0  0  0  0  0  0  0  0  0  0  0
    2.4731   13.6881   -6.2147 H   0  0  0  0  0  0  0  0  0  0  0  0
    2.2306   12.9520   -7.7788 H   0  0  0  0  0  0  0  0  0  0  0  0
    1.8119   14.6585   -7.5319 H   0  0  0  0  0  0  0  0  0  0  0  0
    0.4857   11.1018   -7.1282 H   0  0  0  0  0  0  0  0  0  0  0  0
    1.3138   11.5757   -5.6403 H   0  0  0  0  0  0  0  0  0  0  0  0
   -2.5531   10.5744   -4.0710 H   0  0  0  0  0  0  0  0  0  0  0  0
   -2.5886    8.2275   -4.9887 H   0  0  0  0  0  0  0  0  0  0  0  0
   -4.5018    8.1374   -5.3407 H   0  0  0  0  0  0  0  0  0  0  0  0
   -7.1551    7.7557   -4.0605 H   0  0  0  0  0  0  0  0  0  0  0  0
   -8.4727    6.2484   -4.7527 H   0  0  0  0  0  0  0  0  0  0  0  0
   -7.0231    3.6956   -5.6156 H   0  0  0  0  0  0  0  0  0  0  0  0
   -9.8196    4.0695   -4.4050 H   0  0  0  0  0  0  0  0  0  0  0  0
   -9.4997    3.5802   -6.0767 H   0  0  0  0  0  0  0  0  0  0  0  0
   -9.0209    2.5268   -4.7462 H   0  0  0  0  0  0  0  0  0  0  0  0
   -7.8307    4.7454   -2.8606 H   0  0  0  0  0  0  0  0  0  0  0  0
   -7.1841    3.1325   -3.2047 H   0  0  0  0  0  0  0  0  0  0  0  0
   -6.1790    4.5555   -3.4752 H   0  0  0  0  0  0  0  0  0  0  0  0
  -10.1486    9.5177   -7.8585 H   0  0  0  0  0  0  0  0  0  0  0  0
   -8.5348    9.5166   -8.5831 H   0  0  0  0  0  0  0  0  0  0  0  0
  -10.2018   10.5041  -10.1205 H   0  0  0  0  0  0  0  0  0  0  0  0
   -9.4973    9.0520  -10.8227 H   0  0  0  0  0  0  0  0  0  0  0  0
  -13.3104   14.3097   -7.4523 H   0  0  0  0  0  0  0  0  0  0  0  0
  -15.0127   14.4144   -7.7944 H   0  0  0  0  0  0  0  0  0  0  0  0
  -14.2104   12.8408   -7.9061 H   0  0  0  0  0  0  0  0  0  0  0  0
  -15.8689   14.4244   -9.9306 H   0  0  0  0  0  0  0  0  0  0  0  0
  -14.8973   14.2057  -11.3550 H   0  0  0  0  0  0  0  0  0  0  0  0
  -15.2477   12.8112  -10.3056 H   0  0  0  0  0  0  0  0  0  0  0  0
  -11.3723   13.5884   -8.1599 H   0  0  0  0  0  0  0  0  0  0  0  0
  -10.3996   13.6546   -9.6154 H   0  0  0  0  0  0  0  0  0  0  0  0
  -11.2807   15.0982   -9.0959 H   0  0  0  0  0  0  0  0  0  0  0  0
  -12.2435   15.1441  -11.5311 H   0  0  0  0  0  0  0  0  0  0  0  0
  -11.2805   13.6872  -11.8146 H   0  0  0  0  0  0  0  0  0  0  0  0
  -12.9887   13.6753  -12.1984 H   0  0  0  0  0  0  0  0  0  0  0  0
  -12.4106    6.8954  -10.1665 H   0  0  0  0  0  0  0  0  0  0  0  0
  -10.7996    6.9494  -10.8842 H   0  0  0  0  0  0  0  0  0  0  0  0
  -10.7166    5.7919   -8.7114 H   0  0  0  0  0  0  0  0  0  0  0  0
  -11.4950    7.1497   -7.9039 H   0  0  0  0  0  0  0  0  0  0  0  0
   -7.4732    4.1761   -7.6022 H   0  0  0  0  0  0  0  0  0  0  0  0
   -8.5401    5.0170   -8.7079 H   0  0  0  0  0  0  0  0  0  0  0  0
   -6.9393    5.7120   -8.3374 H   0  0  0  0  0  0  0  0  0  0  0  0
   -6.5903   10.0180   -4.2411 H   0  0  0  0  0  0  0  0  0  0  0  0
   -5.0033   10.3526   -3.6260 H   0  0  0  0  0  0  0  0  0  0  0  0
   -4.0800   10.6392   -5.8355 H   0  0  0  0  0  0  0  0  0  0  0  0
   -5.3100    9.0859   -7.2889 H   0  0  0  0  0  0  0  0  0  0  0  0
   -6.8442    9.8086   -6.8552 H   0  0  0  0  0  0  0  0  0  0  0  0
   -5.5720   13.1492   -8.0824 H   0  0  0  0  0  0  0  0  0  0  0  0
   -7.1659   12.4971   -8.4118 H   0  0  0  0  0  0  0  0  0  0  0  0
   -6.8248   13.5101   -6.0769 H   0  0  0  0  0  0  0  0  0  0  0  0
   -7.5214   11.8901   -6.0781 H   0  0  0  0  0  0  0  0  0  0  0  0
   -3.3265    7.9746   -0.9059 H   0  0  0  0  0  0  0  0  0  0  0  0
   -1.8150    7.4252   -1.6531 H   0  0  0  0  0  0  0  0  0  0  0  0
   -2.7865   10.3246   -1.3330 H   0  0  0  0  0  0  0  0  0  0  0  0
   -1.4217    9.5914   -0.4838 H   0  0  0  0  0  0  0  0  0  0  0  0
   -0.1403    9.4124   -2.5472 H   0  0  0  0  0  0  0  0  0  0  0  0
   -0.7508   11.0568   -2.4425 H   0  0  0  0  0  0  0  0  0  0  0  0
   -2.9115    9.4417  -11.3865 H   0  0  0  0  0  0  0  0  0  0  0  0
   -5.0501    9.4917  -10.1653 H   0  0  0  0  0  0  0  0  0  0  0  0
   -3.4883   12.4584   -7.4746 H   0  0  0  0  0  0  0  0  0  0  0  0
  1  2  1  0
  2  3  1  0
  2  5  1  0
  3  4  1  0
  5  6  2  0
  5 10  1  0
  6  7  1  0
  7  8  2  0
  8  9  1  0
  9 10  2  0
 10 11  1  0
 11 12  1  0
 11 15  2  0
 12 13  1  0
 12 68  1  0
 13 14  1  0
 15 16  1  0
 15 67  1  0
 16 17  1  0
 17 18  1  0
 17 19  1  0
 17 20  1  0
 20 21  1  0
 21 22  1  0
 22 23  1  0
 22 66  2  0
 23 24  1  0
 23 65  1  0
 24 25  1  0
 25 26  1  0
 25 63  1  0
 26 27  1  0
 26 62  2  0
 27 28  1  0
 27 55  1  0
 28 29  1  0
 29 30  1  0
 29 54  2  0
 30 31  1  0
 30 34  1  0
 31 32  1  0
 31 33  1  0
 34 35  1  0
 34 53  1  0
 35 36  1  0
 35 52  2  0
 36 37  1  0
 36 51  1  0
 36 73  1  0
 37 38  1  0
 38 39  1  0
 39 40  1  0
 39 50  1  0
 40 41  1  0
 40 49  2  0
 42 43  1  0
 43 44  1  0
 43 47  1  0
 43 48  1  0
 44 45  1  0
 44 46  1  0
 50 51  1  0
 55 56  1  0
 56 57  1  0
 56 61  1  0
 57 58  1  0
 58 59  1  0
 58 71  1  0
 59 60  1  0
 60 61  1  0
 63 64  1  0
 64 65  1  0
 67 68  2  0
 67 72  1  0
 68 69  1  0
 69 70  2  0
 70 71  1  0
 71 72  2  0
 41 42  3  0
  1 74  1  0
  1 75  1  0
  1 76  1  0
  2 77  1  6
  4 78  1  0
  4 79  1  0
  4 80  1  0
  7 81  1  0
  8 82  1  0
  9 83  1  0
 13 84  1  0
 13 85  1  0
 14 86  1  0
 14 87  1  0
 14 88  1  0
 16 89  1  0
 16 90  1  0
 18 91  1  0
 18 92  1  0
 18 93  1  0
 19 94  1  0
 19 95  1  0
 19 96  1  0
 20 97  1  0
 20 98  1  0
 23 99  1  6
 24100  1  0
 27101  1  6
 28102  1  0
 30103  1  1
 31104  1  0
 32105  1  0
 32106  1  0
 32107  1  0
 33108  1  0
 33109  1  0
 33110  1  0
 37111  1  0
 37112  1  0
 38113  1  0
 38114  1  0
 45115  1  0
 45116  1  0
 45117  1  0
 46118  1  0
 46119  1  0
 46120  1  0
 47121  1  0
 47122  1  0
 47123  1  0
 48124  1  0
 48125  1  0
 48126  1  0
 50127  1  0
 50128  1  0
 51129  1  0
 51130  1  0
 53131  1  0
 53132  1  0
 53133  1  0
 55134  1  0
 55135  1  0
 56136  1  6
 57137  1  0
 57138  1  0
 59139  1  0
 59140  1  0
 60141  1  0
 60142  1  0
 63143  1  0
 63144  1  0
 64145  1  0
 64146  1  0
 65147  1  0
 65148  1  0
 69149  1  0
 70150  1  0
 72151  1  0
M  END
$$$$
