mol_bioactive_1
     RDKit          3D

151157  0  0  0  0  0  0  0  0999 V2000
   -0.2504   15.1406  -13.2173 C   0  0  0  0  0  0  0  0  0  0  0  0
   -0.3163   14.6015  -11.7832 C   0  0  2  0  0  0  0  0  0  0  0  0
   -0.4873   15.7026  -10.8792 O   0  0  0  0  0  0  0  0  0  0  0  0
   -1.8530   16.0336  -10.6670 C   0  0  0  0  0  0  0  0  0  0  0  0
    0.9510   13.8316  -11.4133 C   0  0  0  0  0  0  0  0  0  0  0  0
    2.1280   14.3276  -11.8987 N   0  0  0  0  0  0  0  0  0  0  0  0
    3.2676   13.6640  -11.6144 C   0  0  0  0  0  0  0  0  0  0  0  0
    3.3106   12.4991  -10.8766 C   0  0  0  0  0  0  0  0  0  0  0  0
    2.1142   11.9941  -10.3844 C   0  0  0  0  0  0  0  0  0  0  0  0
    0.9062   12.6625  -10.6320 C   0  0  0  0  0  0  0  0  0  0  0  0
   -0.3391   12.0918  -10.1000 C   0  0  0  0  0  0  0  0  0  0  0  0
   -0.9965   11.0341  -10.7091 N   0  0  0  0  0  0  0  0  0  0  0  0
   -0.5155   10.2745  -11.8572 C   0  0  0  0  0  0  0  0  0  0  0  0
    0.1187    8.9552  -11.4473 C   0  0  0  0  0  0  0  0  0  0  0  0
   -1.1008   12.4740   -8.9936 C   0  0  0  0  0  0  0  0  0  0  0  0
   -0.8184   13.5646   -7.9862 C   0  0  0  0  0  0  0  0  0  0  0  0
    0.2142   13.2902   -6.8502 C   0  0  0  0  0  0  0  0  0  0  0  0
   -0.1471   14.2092   -5.6591 C   0  0  0  0  0  0  0  0  0  0  0  0
    1.6331   13.6946   -7.3052 C   0  0  0  0  0  0  0  0  0  0  0  0
    0.2699   11.8180   -6.3834 C   0  0  0  0  0  0  0  0  0  0  0  0
   -0.8245   11.4788   -5.5215 O   0  0  0  0  0  0  0  0  0  0  0  0
   -0.7826   10.1765   -5.0935 C   0  0  0  0  0  0  0  0  0  0  0  0
   -1.7767    9.9598   -3.9471 C   0  0  1  0  0  0  0  0  0  0  0  0
   -2.3161    8.5928   -4.0065 N   0  0  0  0  0  0  0  0  0  0  0  0
   -3.2034    8.3329   -2.9404 N   0  0  0  0  0  0  0  0  0  0  0  0
   -4.5696    8.0663   -3.0733 C   0  0  0  0  0  0  0  0  0  0  0  0
   -5.2322    8.4484   -4.4169 C   0  0  1  0  0  0  0  0  0  0  0  0
   -6.3524    7.5681   -4.7135 N   0  0  0  0  0  0  0  0  0  0  0  0
   -6.1370    6.2902   -5.1913 C   0  0  0  0  0  0  0  0  0  0  0  0
   -7.4333    5.4627   -5.3706 C   0  0  2  0  0  0  0  0  0  0  0  0
   -7.1970    3.9386   -5.2263 C   0  0  0  0  0  0  0  0  0  0  0  0
   -8.5047    3.1573   -5.4248 C   0  0  0  0  0  0  0  0  0  0  0  0
   -6.6371    3.5964   -3.8353 C   0  0  0  0  0  0  0  0  0  0  0  0
   -8.0245    5.8623   -6.6777 N   0  0  0  0  0  0  0  0  0  0  0  0
   -8.9778    6.8843   -6.6655 C   0  0  0  0  0  0  0  0  0  0  0  0
   -9.7761    7.1999   -7.9581 C   0  0  0  0  0  0  0  0  0  0  0  0
  -10.7362    8.3840   -7.7123 C   0  0  0  0  0  0  0  0  0  0  0  0
  -11.6438    8.6249   -8.9123 C   0  0  0  0  0  0  0  0  0  0  0  0
  -12.3293    7.3889   -9.2740 N   0  0  0  0  0  0  0  0  0  0  0  0
  -13.6742    7.1272   -9.0371 C   0  0  0  0  0  0  0  0  0  0  0  0
  -14.5182    8.1828   -8.5230 C   0  0  0  0  0  0  0  0  0  0  0  0
  -15.2526    9.0034   -8.0372 C   0  0  0  0  0  0  0  0  0  0  0  0
  -16.1657    9.9580   -7.3609 C   0  0  0  0  0  0  0  0  0  0  0  0
  -15.4716   10.7393   -6.2981 N   0  0  0  0  0  0  0  0  0  0  0  0
  -14.8886    9.9163   -5.2317 C   0  0  0  0  0  0  0  0  0  0  0  0
  -14.4636   11.6801   -6.7924 C   0  0  0  0  0  0  0  0  0  0  0  0
  -17.3371    9.1604   -6.7400 C   0  0  0  0  0  0  0  0  0  0  0  0
  -16.7849   10.8926   -8.4260 C   0  0  0  0  0  0  0  0  0  0  0  0
  -14.1845    6.0272   -9.2125 O   0  0  0  0  0  0  0  0  0  0  0  0
  -11.4439    6.2876   -9.6150 C   0  0  0  0  0  0  0  0  0  0  0  0
  -10.5556    5.9564   -8.4217 C   0  0  0  0  0  0  0  0  0  0  0  0
   -9.2215    7.4958   -5.6157 O   0  0  0  0  0  0  0  0  0  0  0  0
   -7.3304    5.4095   -7.8881 C   0  0  0  0  0  0  0  0  0  0  0  0
   -5.0241    5.9007   -5.5318 O   0  0  0  0  0  0  0  0  0  0  0  0
   -5.7201    9.8994   -4.3091 C   0  0  0  0  0  0  0  0  0  0  0  0
   -5.5247   10.7406   -5.5716 C   0  0  1  0  0  0  0  0  0  0  0  0
   -5.9716   10.0538   -6.8872 C   0  0  0  0  0  0  0  0  0  0  0  0
   -5.8757   10.9995   -8.0205 N   0  0  0  0  0  0  0  0  0  0  0  0
   -6.4086   12.3522   -7.7331 C   0  0  0  0  0  0  0  0  0  0  0  0
   -7.0774   12.4091   -6.3553 C   0  0  0  0  0  0  0  0  0  0  0  0
   -6.1837   12.0043   -5.3095 O   0  0  0  0  0  0  0  0  0  0  0  0
   -5.2619    7.6618   -2.1319 O   0  0  0  0  0  0  0  0  0  0  0  0
   -2.5517    8.3349   -1.6310 C   0  0  0  0  0  0  0  0  0  0  0  0
   -1.9008    9.7039   -1.4038 C   0  0  0  0  0  0  0  0  0  0  0  0
   -1.0377   10.1247   -2.6050 C   0  0  0  0  0  0  0  0  0  0  0  0
   -0.0108    9.3276   -5.5226 O   0  0  0  0  0  0  0  0  0  0  0  0
   -2.3281   11.7283   -9.0607 C   0  0  0  0  0  0  0  0  0  0  0  0
   -2.2341   10.8413  -10.1272 C   0  0  0  0  0  0  0  0  0  0  0  0
   -3.2796    9.9615  -10.4554 C   0  0  0  0  0  0  0  0  0  0  0  0
   -4.4675   10.0400   -9.7176 C   0  0  0  0  0  0  0  0  0  0  0  0
   -4.6276   10.9497   -8.6703 C   0  0  0  0  0  0  0  0  0  0  0  0
   -3.5334   11.7588   -8.3221 C   0  0  0  0  0  0  0  0  0  0  0  0
   -8.9414    7.5893   -8.9761 F   0  0  0  0  0  0  0  0  0  0  0  0
   -1.1929   15.6221  -13.4971 H   0  0  0  0  0  0  0  0  0  0  0  0
    0.5259   15.9112  -13.3205 H   0  0  0  0  0  0  0  0  0  0  0  0
   -0.0469   14.3431  -13.9380 H   0  0  0  0  0  0  0  0  0  0  0  0
   -1.1838   13.9305  -11.7248 H   0  0  0  0  0  0  0  0  0  0  0  0
   -2.3504   15.2407  -10.0992 H   0  0  0  0  0  0  0  0  0  0  0  0
   -1.8978   16.9587  -10.0817 H   0  0  0  0  0  0  0  0  0  0  0  0
   -2.3800   16.1965  -11.6128 H   0  0  0  0  0  0  0  0  0  0  0  0
    4.1735   14.1144  -12.0086 H   0  0  0  0  0  0  0  0  0  0  0  0
    4.2570   12.0040  -10.6749 H   0  0  0  0  0  0  0  0  0  0  0  0
    2.1254   11.0852   -9.7861 H   0  0  0  0  0  0  0  0  0  0  0  0
   -1.3656   10.1016  -12.5246 H   0  0  0  0  0  0  0  0  0  0  0  0
    0.1969   10.8856  -12.4202 H   0  0  0  0  0  0  0  0  0  0  0  0
    0.9820    9.1139  -10.7962 H   0  0  0  0  0  0  0  0  0  0  0  0
   -0.5926    8.3238  -10.9046 H   0  0  0  0  0  0  0  0  0  0  0  0
    0.4552    8.4047  -12.3304 H   0  0  0  0  0  0  0  0  0  0  0  0
   -0.5243   14.4731   -8.5222 H   0  0  0  0  0  0  0  0  0  0  0  0
   -1.7766   13.8338   -7.5219 H   0  0  0  0  0  0  0  0  0  0  0  0
    0.5453   14.0655   -4.8195 H   0  0  0  0  0  0  0  0  0  0  0  0
   -0.1048   15.2639   -5.9497 H   0  0  0  0  0  0  0  0  0  0  0  0
   -1.1586   14.0130   -5.2865 H   0  0  0  0  0  0  0  0  0  0  0  0
    2.3192   13.7549   -6.4517 H   0  0  0  0  0  0  0  0  0  0  0  0
    2.0584   12.9616   -7.9881 H   0  0  0  0  0  0  0  0  0  0  0  0
    1.6411   14.6747   -7.7963 H   0  0  0  0  0  0  0  0  0  0  0  0
    0.3023   11.1298   -7.2394 H   0  0  0  0  0  0  0  0  0  0  0  0
    1.1927   11.6594   -5.8074 H   0  0  0  0  0  0  0  0  0  0  0  0
   -2.5964   10.6819   -4.0378 H   0  0  0  0  0  0  0  0  0  0  0  0
   -2.6367    8.3069   -4.9314 H   0  0  0  0  0  0  0  0  0  0  0  0
   -4.5145    8.3287   -5.2286 H   0  0  0  0  0  0  0  0  0  0  0  0
   -7.2376    7.7344   -4.2347 H   0  0  0  0  0  0  0  0  0  0  0  0
   -8.1238    5.7532   -4.5672 H   0  0  0  0  0  0  0  0  0  0  0  0
   -6.4684    3.5938   -5.9712 H   0  0  0  0  0  0  0  0  0  0  0  0
   -9.2647    3.4740   -4.7032 H   0  0  0  0  0  0  0  0  0  0  0  0
   -8.9159    3.3005   -6.4293 H   0  0  0  0  0  0  0  0  0  0  0  0
   -8.3393    2.0834   -5.2886 H   0  0  0  0  0  0  0  0  0  0  0  0
   -7.3153    3.9345   -3.0439 H   0  0  0  0  0  0  0  0  0  0  0  0
   -6.5034    2.5149   -3.7260 H   0  0  0  0  0  0  0  0  0  0  0  0
   -5.6605    4.0624   -3.6681 H   0  0  0  0  0  0  0  0  0  0  0  0
  -11.3575    8.1892   -6.8289 H   0  0  0  0  0  0  0  0  0  0  0  0
  -10.1581    9.2944   -7.5154 H   0  0  0  0  0  0  0  0  0  0  0  0
  -12.3525    9.4276   -8.6945 H   0  0  0  0  0  0  0  0  0  0  0  0
  -11.0565    8.9444   -9.7828 H   0  0  0  0  0  0  0  0  0  0  0  0
  -14.5161   10.5575   -4.4225 H   0  0  0  0  0  0  0  0  0  0  0  0
  -15.6295    9.2598   -4.7649 H   0  0  0  0  0  0  0  0  0  0  0  0
  -14.0488    9.3049   -5.5849 H   0  0  0  0  0  0  0  0  0  0  0  0
  -14.0013   12.2221   -5.9571 H   0  0  0  0  0  0  0  0  0  0  0  0
  -13.6619   11.1846   -7.3506 H   0  0  0  0  0  0  0  0  0  0  0  0
  -14.9083   12.4549   -7.4247 H   0  0  0  0  0  0  0  0  0  0  0  0
  -16.9973    8.2625   -6.2146 H   0  0  0  0  0  0  0  0  0  0  0  0
  -17.9054    9.7736   -6.0334 H   0  0  0  0  0  0  0  0  0  0  0  0
  -18.0410    8.8164   -7.5067 H   0  0  0  0  0  0  0  0  0  0  0  0
  -17.4345   11.6430   -7.9644 H   0  0  0  0  0  0  0  0  0  0  0  0
  -16.0265   11.4115   -9.0211 H   0  0  0  0  0  0  0  0  0  0  0  0
  -17.3938   10.3270   -9.1410 H   0  0  0  0  0  0  0  0  0  0  0  0
  -12.0093    5.4011   -9.9149 H   0  0  0  0  0  0  0  0  0  0  0  0
  -10.8396    6.5945  -10.4765 H   0  0  0  0  0  0  0  0  0  0  0  0
   -9.8758    5.1489   -8.7135 H   0  0  0  0  0  0  0  0  0  0  0  0
  -11.1671    5.5785   -7.5938 H   0  0  0  0  0  0  0  0  0  0  0  0
   -6.2634    5.6412   -7.8089 H   0  0  0  0  0  0  0  0  0  0  0  0
   -7.4633    4.3275   -7.9893 H   0  0  0  0  0  0  0  0  0  0  0  0
   -7.6970    5.8827   -8.7977 H   0  0  0  0  0  0  0  0  0  0  0  0
   -6.7799    9.9269   -4.0156 H   0  0  0  0  0  0  0  0  0  0  0  0
   -5.1995   10.4210   -3.4928 H   0  0  0  0  0  0  0  0  0  0  0  0
   -4.4562   10.9793   -5.6484 H   0  0  0  0  0  0  0  0  0  0  0  0
   -5.3858    9.1464   -7.0850 H   0  0  0  0  0  0  0  0  0  0  0  0
   -7.0186    9.7387   -6.8029 H   0  0  0  0  0  0  0  0  0  0  0  0
   -5.6309   13.1259   -7.7616 H   0  0  0  0  0  0  0  0  0  0  0  0
   -7.1404   12.6075   -8.5079 H   0  0  0  0  0  0  0  0  0  0  0  0
   -7.4000   13.4322   -6.1413 H   0  0  0  0  0  0  0  0  0  0  0  0
   -7.9734   11.7785   -6.3156 H   0  0  0  0  0  0  0  0  0  0  0  0
   -3.2695    8.1251   -0.8314 H   0  0  0  0  0  0  0  0  0  0  0  0
   -1.7971    7.5370   -1.6237 H   0  0  0  0  0  0  0  0  0  0  0  0
   -2.6856   10.4558   -1.2601 H   0  0  0  0  0  0  0  0  0  0  0  0
   -1.2930    9.6873   -0.4914 H   0  0  0  0  0  0  0  0  0  0  0  0
   -0.1196    9.5170   -2.6100 H   0  0  0  0  0  0  0  0  0  0  0  0
   -0.7121   11.1645   -2.4803 H   0  0  0  0  0  0  0  0  0  0  0  0
   -3.2014    9.2560  -11.2779 H   0  0  0  0  0  0  0  0  0  0  0  0
   -5.2999    9.3907   -9.9885 H   0  0  0  0  0  0  0  0  0  0  0  0
   -3.6067   12.4391   -7.4816 H   0  0  0  0  0  0  0  0  0  0  0  0
  1  2  1  0
  2  3  1  0
  2  5  1  0
  3  4  1  0
  5  6  2  0
  5 10  1  0
  6  7  1  0
  7  8  2  0
  8  9  1  0
  9 10  2  0
 10 11  1  0
 11 12  1  0
 11 15  2  0
 12 13  1  0
 12 68  1  0
 13 14  1  0
 15 16  1  0
 15 67  1  0
 16 17  1  0
 17 18  1  0
 17 19  1  0
 17 20  1  0
 20 21  1  0
 21 22  1  0
 22 23  1  0
 22 66  2  0
 23 24  1  0
 23 65  1  0
 24 25  1  0
 25 26  1  0
 25 63  1  0
 26 27  1  0
 26 62  2  0
 27 28  1  0
 27 55  1  0
 28 29  1  0
 29 30  1  0
 29 54  2  0
 30 31  1  0
 30 34  1  0
 31 32  1  0
 31 33  1  0
 34 35  1  0
 34 53  1  0
 35 36  1  0
 35 52  2  0
 36 37  1  0
 36 51  1  0
 36 73  1  0
 37 38  1  0
 38 39  1  0
 39 40  1  0
 39 50  1  0
 40 41  1  0
 40 49  2  0
 42 43  1  0
 43 44  1  0
 43 47  1  0
 43 48  1  0
 44 45  1  0
 44 46  1  0
 50 51  1  0
 55 56  1  0
 56 57  1  0
 56 61  1  0
 57 58  1  0
 58 59  1  0
 58 71  1  0
 59 60  1  0
 60 61  1  0
 63 64  1  0
 64 65  1  0
 67 68  2  0
 67 72  1  0
 68 69  1  0
 69 70  2  0
 70 71  1  0
 71 72  2  0
 41 42  3  0
  1 74  1  0
  1 75  1  0
  1 76  1  0
  2 77  1  6
  4 78  1  0
  4 79  1  0
  4 80  1  0
  7 81  1  0
  8 82  1  0
  9 83  1  0
 13 84  1  0
 13 85  1  0
 14 86  1  0
 14 87  1  0
 14 88  1  0
 16 89  1  0
 16 90  1  0
 18 91  1  0
 18 92  1  0
 18 93  1  0
 19 94  1  0
 19 95  1  0
 19 96  1  0
 20 97  1  0
 20 98  1  0
 23 99  1  6
 24100  1  0
 27101  1  6
 28102  1  0
 30103  1  1
 31104  1  0
 32105  1  0
 32106  1  0
 32107  1  0
 33108  1  0
 33109  1  0
 33110  1  0
 37111  1  0
 37112  1  0
 38113  1  0
 38114  1  0
 45115  1  0
 45116  1  0
 45117  1  0
 46118  1  0
 46119  1  0
 46120  1  0
 47121  1  0
 47122  1  0
 47123  1  0
 48124  1  0
 48125  1  0
 48126  1  0
 50127  1  0
 50128  1  0
 51129  1  0
 51130  1  0
 53131  1  0
 53132  1  0
 53133  1  0
 55134  1  0
 55135  1  0
 56136  1  6
 57137  1  0
 57138  1  0
 59139  1  0
 59140  1  0
 60141  1  0
 60142  1  0
 63143  1  0
 63144  1  0
 64145  1  0
 64146  1  0
 65147  1  0
 65148  1  0
 69149  1  0
 70150  1  0
 72151  1  0
M  END
$$$$
