mol_bioactive_22
     RDKit          3D

151157  0  0  0  0  0  0  0  0999 V2000
   -0.9320   15.5736  -10.8644 C   0  0  0  0  0  0  0  0  0  0  0  0
   -0.1376   14.7313  -11.8597 C   0  0  2  0  0  0  0  0  0  0  0  0
   -0.9511   13.7711  -12.5515 O   0  0  0  0  0  0  0  0  0  0  0  0
   -1.9366   14.3584  -13.3878 C   0  0  0  0  0  0  0  0  0  0  0  0
    1.0707   14.0459  -11.2311 C   0  0  0  0  0  0  0  0  0  0  0  0
    2.2744   14.5629  -11.6328 N   0  0  0  0  0  0  0  0  0  0  0  0
    3.4058   13.9547  -11.2190 C   0  0  0  0  0  0  0  0  0  0  0  0
    3.4205   12.8335  -10.4153 C   0  0  0  0  0  0  0  0  0  0  0  0
    2.1990   12.3234   -9.9902 C   0  0  0  0  0  0  0  0  0  0  0  0
    0.9952   12.9431  -10.3617 C   0  0  0  0  0  0  0  0  0  0  0  0
   -0.2605   12.3546   -9.8799 C   0  0  0  0  0  0  0  0  0  0  0  0
   -0.8866   11.3125  -10.5483 N   0  0  0  0  0  0  0  0  0  0  0  0
   -0.3696   10.6217  -11.7243 C   0  0  0  0  0  0  0  0  0  0  0  0
    0.3488    9.3334  -11.3596 C   0  0  0  0  0  0  0  0  0  0  0  0
   -1.0512   12.6741   -8.7732 C   0  0  0  0  0  0  0  0  0  0  0  0
   -0.8270   13.7207   -7.7015 C   0  0  0  0  0  0  0  0  0  0  0  0
    0.2098   13.4538   -6.5694 C   0  0  0  0  0  0  0  0  0  0  0  0
   -0.1783   14.3515   -5.3697 C   0  0  0  0  0  0  0  0  0  0  0  0
    1.6237   13.8879   -7.0056 C   0  0  0  0  0  0  0  0  0  0  0  0
    0.2803   11.9725   -6.1226 C   0  0  0  0  0  0  0  0  0  0  0  0
   -0.8329   11.6125   -5.2878 O   0  0  0  0  0  0  0  0  0  0  0  0
   -0.8852   10.2748   -4.9972 C   0  0  0  0  0  0  0  0  0  0  0  0
   -1.9257   10.0089   -3.9022 C   0  0  1  0  0  0  0  0  0  0  0  0
   -2.4399    8.6352   -4.0392 N   0  0  0  0  0  0  0  0  0  0  0  0
   -3.3563    8.3104   -3.0161 N   0  0  0  0  0  0  0  0  0  0  0  0
   -4.7007    7.9863   -3.2134 C   0  0  0  0  0  0  0  0  0  0  0  0
   -5.3375    8.3945   -4.5580 C   0  0  1  0  0  0  0  0  0  0  0  0
   -6.4896    7.5434   -4.8422 N   0  0  0  0  0  0  0  0  0  0  0  0
   -6.2784    6.2818   -5.3660 C   0  0  0  0  0  0  0  0  0  0  0  0
   -7.5415    5.3900   -5.4203 C   0  0  2  0  0  0  0  0  0  0  0  0
   -7.2183    3.9094   -5.0831 C   0  0  0  0  0  0  0  0  0  0  0  0
   -8.4563    3.0204   -5.2456 C   0  0  0  0  0  0  0  0  0  0  0  0
   -6.6997    3.7853   -3.6425 C   0  0  0  0  0  0  0  0  0  0  0  0
   -8.1661    5.5738   -6.7537 N   0  0  0  0  0  0  0  0  0  0  0  0
   -9.2022    6.5098   -6.8611 C   0  0  0  0  0  0  0  0  0  0  0  0
   -9.9427    6.6470   -8.2163 C   0  0  0  0  0  0  0  0  0  0  0  0
  -10.8165    7.9120   -8.2167 C   0  0  0  0  0  0  0  0  0  0  0  0
  -11.6374    8.0092   -9.4974 C   0  0  0  0  0  0  0  0  0  0  0  0
  -12.3941    6.7792   -9.7013 N   0  0  0  0  0  0  0  0  0  0  0  0
  -13.7804    6.6816   -9.7016 C   0  0  0  0  0  0  0  0  0  0  0  0
  -14.5706    7.8731   -9.4889 C   0  0  0  0  0  0  0  0  0  0  0  0
  -15.3075    8.7949   -9.2606 C   0  0  0  0  0  0  0  0  0  0  0  0
  -16.2987    9.8432   -8.9286 C   0  0  0  0  0  0  0  0  0  0  0  0
  -17.1500    9.4566   -7.7663 N   0  0  0  0  0  0  0  0  0  0  0  0
  -16.4225    9.3375   -6.4979 C   0  0  0  0  0  0  0  0  0  0  0  0
  -17.9353    8.2360   -7.9827 C   0  0  0  0  0  0  0  0  0  0  0  0
  -15.5512   11.1654   -8.6439 C   0  0  0  0  0  0  0  0  0  0  0  0
  -17.1817   10.1010  -10.1718 C   0  0  0  0  0  0  0  0  0  0  0  0
  -14.3806    5.6226   -9.8490 O   0  0  0  0  0  0  0  0  0  0  0  0
  -11.5955    5.5671   -9.7691 C   0  0  0  0  0  0  0  0  0  0  0  0
  -10.7974    5.3987   -8.4816 C   0  0  0  0  0  0  0  0  0  0  0  0
   -9.5727    7.1579   -5.8743 O   0  0  0  0  0  0  0  0  0  0  0  0
   -7.4041    5.1423   -7.9280 C   0  0  0  0  0  0  0  0  0  0  0  0
   -5.1934    5.9438   -5.8357 O   0  0  0  0  0  0  0  0  0  0  0  0
   -5.7650    9.8615   -4.4523 C   0  0  0  0  0  0  0  0  0  0  0  0
   -5.3841   10.6898   -5.6802 C   0  0  1  0  0  0  0  0  0  0  0  0
   -6.0095   10.1598   -6.9947 C   0  0  0  0  0  0  0  0  0  0  0  0
   -5.8710   11.1619   -8.0717 N   0  0  0  0  0  0  0  0  0  0  0  0
   -6.3805   12.5028   -7.7035 C   0  0  0  0  0  0  0  0  0  0  0  0
   -6.7390   12.5988   -6.2124 C   0  0  0  0  0  0  0  0  0  0  0  0
   -5.7058   12.0677   -5.3757 O   0  0  0  0  0  0  0  0  0  0  0  0
   -5.4066    7.5077   -2.3188 O   0  0  0  0  0  0  0  0  0  0  0  0
   -2.7599    8.2938   -1.6804 C   0  0  0  0  0  0  0  0  0  0  0  0
   -2.1841    9.6835   -1.3876 C   0  0  0  0  0  0  0  0  0  0  0  0
   -1.2632   10.1582   -2.5214 C   0  0  0  0  0  0  0  0  0  0  0  0
   -0.1715    9.4206   -5.5110 O   0  0  0  0  0  0  0  0  0  0  0  0
   -2.2742   11.9241   -8.9181 C   0  0  0  0  0  0  0  0  0  0  0  0
   -2.1337   11.0719  -10.0093 C   0  0  0  0  0  0  0  0  0  0  0  0
   -3.1554   10.1919  -10.4038 C   0  0  0  0  0  0  0  0  0  0  0  0
   -4.3737   10.2434   -9.7211 C   0  0  0  0  0  0  0  0  0  0  0  0
   -4.5882   11.1295   -8.6635 C   0  0  0  0  0  0  0  0  0  0  0  0
   -3.5129   11.9279   -8.2347 C   0  0  0  0  0  0  0  0  0  0  0  0
   -9.0628    6.7803   -9.2600 F   0  0  0  0  0  0  0  0  0  0  0  0
   -1.6517   14.9683  -10.3108 H   0  0  0  0  0  0  0  0  0  0  0  0
   -0.2817   16.1040  -10.1629 H   0  0  0  0  0  0  0  0  0  0  0  0
   -1.5262   16.3260  -11.3957 H   0  0  0  0  0  0  0  0  0  0  0  0
    0.2650   15.4175  -12.6190 H   0  0  0  0  0  0  0  0  0  0  0  0
   -2.7236   14.8252  -12.7894 H   0  0  0  0  0  0  0  0  0  0  0  0
   -1.4919   15.0908  -14.0678 H   0  0  0  0  0  0  0  0  0  0  0  0
   -2.3923   13.5654  -13.9859 H   0  0  0  0  0  0  0  0  0  0  0  0
    4.3293   14.4038  -11.5718 H   0  0  0  0  0  0  0  0  0  0  0  0
    4.3529   12.3696  -10.1214 H   0  0  0  0  0  0  0  0  0  0  0  0
    2.1834   11.4414   -9.3517 H   0  0  0  0  0  0  0  0  0  0  0  0
   -1.2136   10.4160  -12.3905 H   0  0  0  0  0  0  0  0  0  0  0  0
    0.2990   11.2900  -12.2709 H   0  0  0  0  0  0  0  0  0  0  0  0
    1.2472    9.5346  -10.7693 H   0  0  0  0  0  0  0  0  0  0  0  0
   -0.2889    8.6681  -10.7712 H   0  0  0  0  0  0  0  0  0  0  0  0
    0.6553    8.8011  -12.2658 H   0  0  0  0  0  0  0  0  0  0  0  0
   -0.5835   14.6691   -8.1912 H   0  0  0  0  0  0  0  0  0  0  0  0
   -1.7985   13.9071   -7.2294 H   0  0  0  0  0  0  0  0  0  0  0  0
    0.5187   14.2216   -4.5349 H   0  0  0  0  0  0  0  0  0  0  0  0
   -0.1642   15.4083   -5.6552 H   0  0  0  0  0  0  0  0  0  0  0  0
   -1.1840   14.1273   -4.9978 H   0  0  0  0  0  0  0  0  0  0  0  0
    2.2688   14.0714   -6.1396 H   0  0  0  0  0  0  0  0  0  0  0  0
    2.1165   13.1102   -7.5833 H   0  0  0  0  0  0  0  0  0  0  0  0
    1.6037   14.8055   -7.5970 H   0  0  0  0  0  0  0  0  0  0  0  0
    0.3382   11.3060   -6.9942 H   0  0  0  0  0  0  0  0  0  0  0  0
    1.1872   11.8197   -5.5233 H   0  0  0  0  0  0  0  0  0  0  0  0
   -2.7503   10.7205   -4.0194 H   0  0  0  0  0  0  0  0  0  0  0  0
   -2.7409    8.4096   -4.9893 H   0  0  0  0  0  0  0  0  0  0  0  0
   -4.6208    8.2463   -5.3655 H   0  0  0  0  0  0  0  0  0  0  0  0
   -7.2932    7.6399   -4.2238 H   0  0  0  0  0  0  0  0  0  0  0  0
   -8.2397    5.7440   -4.6503 H   0  0  0  0  0  0  0  0  0  0  0  0
   -6.4337    3.5242   -5.7462 H   0  0  0  0  0  0  0  0  0  0  0  0
   -9.3096    3.4187   -4.6854 H   0  0  0  0  0  0  0  0  0  0  0  0
   -8.7496    2.9431   -6.2968 H   0  0  0  0  0  0  0  0  0  0  0  0
   -8.2590    2.0055   -4.8844 H   0  0  0  0  0  0  0  0  0  0  0  0
   -7.4393    4.1512   -2.9195 H   0  0  0  0  0  0  0  0  0  0  0  0
   -6.4790    2.7391   -3.3990 H   0  0  0  0  0  0  0  0  0  0  0  0
   -5.7754    4.3548   -3.4997 H   0  0  0  0  0  0  0  0  0  0  0  0
  -11.5003    7.9043   -7.3556 H   0  0  0  0  0  0  0  0  0  0  0  0
  -10.1851    8.8045   -8.1252 H   0  0  0  0  0  0  0  0  0  0  0  0
  -12.2908    8.8853   -9.4554 H   0  0  0  0  0  0  0  0  0  0  0  0
  -10.9797    8.1416  -10.3656 H   0  0  0  0  0  0  0  0  0  0  0  0
  -17.1125    9.0799   -5.6853 H   0  0  0  0  0  0  0  0  0  0  0  0
  -15.6438    8.5672   -6.5278 H   0  0  0  0  0  0  0  0  0  0  0  0
  -15.9702   10.2866   -6.1974 H   0  0  0  0  0  0  0  0  0  0  0  0
  -18.5774    8.0373   -7.1160 H   0  0  0  0  0  0  0  0  0  0  0  0
  -18.6198    8.3358   -8.8296 H   0  0  0  0  0  0  0  0  0  0  0  0
  -17.3104    7.3508   -8.1388 H   0  0  0  0  0  0  0  0  0  0  0  0
  -14.7801   11.0552   -7.8742 H   0  0  0  0  0  0  0  0  0  0  0  0
  -15.0338   11.5285   -9.5406 H   0  0  0  0  0  0  0  0  0  0  0  0
  -16.2444   11.9520   -8.3255 H   0  0  0  0  0  0  0  0  0  0  0  0
  -17.9927   10.8027   -9.9436 H   0  0  0  0  0  0  0  0  0  0  0  0
  -16.5972   10.5351  -10.9919 H   0  0  0  0  0  0  0  0  0  0  0  0
  -17.6261    9.1819  -10.5698 H   0  0  0  0  0  0  0  0  0  0  0  0
  -12.2220    4.6849   -9.9338 H   0  0  0  0  0  0  0  0  0  0  0  0
  -10.9257    5.6549  -10.6361 H   0  0  0  0  0  0  0  0  0  0  0  0
  -10.1793    4.5036   -8.5742 H   0  0  0  0  0  0  0  0  0  0  0  0
  -11.4789    5.2308   -7.6410 H   0  0  0  0  0  0  0  0  0  0  0  0
   -8.0283    4.4894   -8.5415 H   0  0  0  0  0  0  0  0  0  0  0  0
   -7.1044    6.0194   -8.5106 H   0  0  0  0  0  0  0  0  0  0  0  0
   -6.5027    4.5914   -7.6502 H   0  0  0  0  0  0  0  0  0  0  0  0
   -6.8467    9.9535   -4.2769 H   0  0  0  0  0  0  0  0  0  0  0  0
   -5.3019   10.3442   -3.5776 H   0  0  0  0  0  0  0  0  0  0  0  0
   -4.2921   10.6702   -5.7772 H   0  0  0  0  0  0  0  0  0  0  0  0
   -5.5845    9.1942   -7.2869 H   0  0  0  0  0  0  0  0  0  0  0  0
   -7.0810    9.9847   -6.8447 H   0  0  0  0  0  0  0  0  0  0  0  0
   -5.6789   13.3034   -7.9586 H   0  0  0  0  0  0  0  0  0  0  0  0
   -7.2827   12.7006   -8.2949 H   0  0  0  0  0  0  0  0  0  0  0  0
   -6.8948   13.6448   -5.9371 H   0  0  0  0  0  0  0  0  0  0  0  0
   -7.6743   12.0697   -5.9956 H   0  0  0  0  0  0  0  0  0  0  0  0
   -3.5020    8.0266   -0.9216 H   0  0  0  0  0  0  0  0  0  0  0  0
   -1.9730    7.5314   -1.6669 H   0  0  0  0  0  0  0  0  0  0  0  0
   -3.0111   10.3962   -1.2855 H   0  0  0  0  0  0  0  0  0  0  0  0
   -1.6418    9.6742   -0.4358 H   0  0  0  0  0  0  0  0  0  0  0  0
   -0.3296    9.5812   -2.4881 H   0  0  0  0  0  0  0  0  0  0  0  0
   -0.9857   11.2047   -2.3522 H   0  0  0  0  0  0  0  0  0  0  0  0
   -3.0327    9.5170  -11.2431 H   0  0  0  0  0  0  0  0  0  0  0  0
   -5.1892    9.6033  -10.0527 H   0  0  0  0  0  0  0  0  0  0  0  0
   -3.6348   12.5854   -7.3814 H   0  0  0  0  0  0  0  0  0  0  0  0
  1  2  1  0
  2  3  1  0
  2  5  1  0
  3  4  1  0
  5  6  2  0
  5 10  1  0
  6  7  1  0
  7  8  2  0
  8  9  1  0
  9 10  2  0
 10 11  1  0
 11 12  1  0
 11 15  2  0
 12 13  1  0
 12 68  1  0
 13 14  1  0
 15 16  1  0
 15 67  1  0
 16 17  1  0
 17 18  1  0
 17 19  1  0
 17 20  1  0
 20 21  1  0
 21 22  1  0
 22 23  1  0
 22 66  2  0
 23 24  1  0
 23 65  1  0
 24 25  1  0
 25 26  1  0
 25 63  1  0
 26 27  1  0
 26 62  2  0
 27 28  1  0
 27 55  1  0
 28 29  1  0
 29 30  1  0
 29 54  2  0
 30 31  1  0
 30 34  1  0
 31 32  1  0
 31 33  1  0
 34 35  1  0
 34 53  1  0
 35 36  1  0
 35 52  2  0
 36 37  1  0
 36 51  1  0
 36 73  1  0
 37 38  1  0
 38 39  1  0
 39 40  1  0
 39 50  1  0
 40 41  1  0
 40 49  2  0
 42 43  1  0
 43 44  1  0
 43 47  1  0
 43 48  1  0
 44 45  1  0
 44 46  1  0
 50 51  1  0
 55 56  1  0
 56 57  1  0
 56 61  1  0
 57 58  1  0
 58 59  1  0
 58 71  1  0
 59 60  1  0
 60 61  1  0
 63 64  1  0
 64 65  1  0
 67 68  2  0
 67 72  1  0
 68 69  1  0
 69 70  2  0
 70 71  1  0
 71 72  2  0
 41 42  3  0
  1 74  1  0
  1 75  1  0
  1 76  1  0
  2 77  1  6
  4 78  1  0
  4 79  1  0
  4 80  1  0
  7 81  1  0
  8 82  1  0
  9 83  1  0
 13 84  1  0
 13 85  1  0
 14 86  1  0
 14 87  1  0
 14 88  1  0
 16 89  1  0
 16 90  1  0
 18 91  1  0
 18 92  1  0
 18 93  1  0
 19 94  1  0
 19 95  1  0
 19 96  1  0
 20 97  1  0
 20 98  1  0
 23 99  1  1
 24100  1  0
 27101  1  6
 28102  1  0
 30103  1  1
 31104  1  0
 32105  1  0
 32106  1  0
 32107  1  0
 33108  1  0
 33109  1  0
 33110  1  0
 37111  1  0
 37112  1  0
 38113  1  0
 38114  1  0
 45115  1  0
 45116  1  0
 45117  1  0
 46118  1  0
 46119  1  0
 46120  1  0
 47121  1  0
 47122  1  0
 47123  1  0
 48124  1  0
 48125  1  0
 48126  1  0
 50127  1  0
 50128  1  0
 51129  1  0
 51130  1  0
 53131  1  0
 53132  1  0
 53133  1  0
 55134  1  0
 55135  1  0
 56136  1  6
 57137  1  0
 57138  1  0
 59139  1  0
 59140  1  0
 60141  1  0
 60142  1  0
 63143  1  0
 63144  1  0
 64145  1  0
 64146  1  0
 65147  1  0
 65148  1  0
 69149  1  0
 70150  1  0
 72151  1  0
M  END
$$$$
