mol_bioactive_18
     RDKit          3D

151157  0  0  0  0  0  0  0  0999 V2000
   -0.4553   15.9128  -12.6567 C   0  0  0  0  0  0  0  0  0  0  0  0
   -0.4492   15.1556  -11.3244 C   0  0  2  0  0  0  0  0  0  0  0  0
   -0.6001   16.0849  -10.2405 O   0  0  0  0  0  0  0  0  0  0  0  0
   -1.9563   16.4269   -9.9875 C   0  0  0  0  0  0  0  0  0  0  0  0
    0.8511   14.3769  -11.1365 C   0  0  0  0  0  0  0  0  0  0  0  0
    1.9921   14.9803  -11.5867 N   0  0  0  0  0  0  0  0  0  0  0  0
    3.1588   14.3127  -11.4760 C   0  0  0  0  0  0  0  0  0  0  0  0
    3.2657   13.0437  -10.9449 C   0  0  0  0  0  0  0  0  0  0  0  0
    2.1071   12.4310  -10.4869 C   0  0  0  0  0  0  0  0  0  0  0  0
    0.8759   13.0986  -10.5509 C   0  0  0  0  0  0  0  0  0  0  0  0
   -0.3289   12.3997  -10.0877 C   0  0  0  0  0  0  0  0  0  0  0  0
   -0.9615   11.4373  -10.8593 N   0  0  0  0  0  0  0  0  0  0  0  0
   -0.4930   10.9230  -12.1441 C   0  0  0  0  0  0  0  0  0  0  0  0
    0.1530    9.5553  -12.0145 C   0  0  0  0  0  0  0  0  0  0  0  0
   -1.0919   12.5758   -8.9304 C   0  0  0  0  0  0  0  0  0  0  0  0
   -0.8421   13.5056   -7.7598 C   0  0  0  0  0  0  0  0  0  0  0  0
    0.2463   13.1266   -6.7146 C   0  0  0  0  0  0  0  0  0  0  0  0
    0.0371   14.0378   -5.4802 C   0  0  0  0  0  0  0  0  0  0  0  0
    1.6616   13.4111   -7.2433 C   0  0  0  0  0  0  0  0  0  0  0  0
    0.1959   11.6435   -6.2803 C   0  0  0  0  0  0  0  0  0  0  0  0
   -0.9434   11.3703   -5.4544 O   0  0  0  0  0  0  0  0  0  0  0  0
   -0.9516   10.0912   -4.9657 C   0  0  0  0  0  0  0  0  0  0  0  0
   -2.0270    9.9419   -3.8883 C   0  0  1  0  0  0  0  0  0  0  0  0
   -2.5213    8.5567   -3.8757 N   0  0  0  0  0  0  0  0  0  0  0  0
   -3.4833    8.3573   -2.8658 N   0  0  0  0  0  0  0  0  0  0  0  0
   -4.8441    8.1301   -3.0856 C   0  0  0  0  0  0  0  0  0  0  0  0
   -5.3956    8.4483   -4.4922 C   0  0  1  0  0  0  0  0  0  0  0  0
   -6.5041    7.5530   -4.7952 N   0  0  0  0  0  0  0  0  0  0  0  0
   -6.2829    6.3029   -5.3397 C   0  0  0  0  0  0  0  0  0  0  0  0
   -7.5599    5.4355   -5.4403 C   0  0  2  0  0  0  0  0  0  0  0  0
   -7.2860    3.9219   -5.2557 C   0  0  0  0  0  0  0  0  0  0  0  0
   -8.5979    3.1245   -5.2830 C   0  0  0  0  0  0  0  0  0  0  0  0
   -6.5786    3.6470   -3.9212 C   0  0  0  0  0  0  0  0  0  0  0  0
   -8.1853    5.8080   -6.7380 N   0  0  0  0  0  0  0  0  0  0  0  0
   -9.1566    6.8107   -6.7272 C   0  0  0  0  0  0  0  0  0  0  0  0
   -9.8257    7.2376   -8.0533 C   0  0  0  0  0  0  0  0  0  0  0  0
  -11.2392    7.7600   -7.7734 C   0  0  0  0  0  0  0  0  0  0  0  0
  -11.8874    8.2914   -9.0438 C   0  0  0  0  0  0  0  0  0  0  0  0
  -11.0333    9.2736   -9.7086 N   0  0  0  0  0  0  0  0  0  0  0  0
  -11.5341   10.3644  -10.4135 C   0  0  0  0  0  0  0  0  0  0  0  0
  -12.9232   10.7229  -10.2295 C   0  0  0  0  0  0  0  0  0  0  0  0
  -14.0729   11.0333  -10.0558 C   0  0  0  0  0  0  0  0  0  0  0  0
  -15.4871   11.4116   -9.8280 C   0  0  0  0  0  0  0  0  0  0  0  0
  -15.6691   12.1813   -8.5651 N   0  0  0  0  0  0  0  0  0  0  0  0
  -15.3623   11.4282   -7.3457 C   0  0  0  0  0  0  0  0  0  0  0  0
  -14.9634   13.4671   -8.5373 C   0  0  0  0  0  0  0  0  0  0  0  0
  -16.3386   10.1195   -9.8087 C   0  0  0  0  0  0  0  0  0  0  0  0
  -15.9753   12.2396  -11.0401 C   0  0  0  0  0  0  0  0  0  0  0  0
  -10.8609   11.0600  -11.1650 O   0  0  0  0  0  0  0  0  0  0  0  0
   -9.6659    8.8480   -9.9798 C   0  0  0  0  0  0  0  0  0  0  0  0
   -8.9910    8.3341   -8.7196 C   0  0  0  0  0  0  0  0  0  0  0  0
   -9.4374    7.3956   -5.6731 O   0  0  0  0  0  0  0  0  0  0  0  0
   -7.6633    5.1847   -7.9541 C   0  0  0  0  0  0  0  0  0  0  0  0
   -5.1962    5.9712   -5.8097 O   0  0  0  0  0  0  0  0  0  0  0  0
   -5.8825    9.9018   -4.4992 C   0  0  0  0  0  0  0  0  0  0  0  0
   -5.5476   10.6852   -5.7731 C   0  0  1  0  0  0  0  0  0  0  0  0
   -5.8753    9.9307   -7.0806 C   0  0  0  0  0  0  0  0  0  0  0  0
   -5.8343   10.8187   -8.2588 N   0  0  0  0  0  0  0  0  0  0  0  0
   -6.4805   12.1370   -8.0576 C   0  0  0  0  0  0  0  0  0  0  0  0
   -7.1580   12.2276   -6.6840 C   0  0  0  0  0  0  0  0  0  0  0  0
   -6.2146   11.9647   -5.6359 O   0  0  0  0  0  0  0  0  0  0  0  0
   -5.6177    7.8057   -2.1764 O   0  0  0  0  0  0  0  0  0  0  0  0
   -2.9423    8.4893   -1.5121 C   0  0  0  0  0  0  0  0  0  0  0  0
   -2.3674    9.9012   -1.3564 C   0  0  0  0  0  0  0  0  0  0  0  0
   -1.4143   10.2541   -2.5110 C   0  0  0  0  0  0  0  0  0  0  0  0
   -0.1725    9.2100   -5.3073 O   0  0  0  0  0  0  0  0  0  0  0  0
   -2.2977   11.7997   -9.1119 C   0  0  0  0  0  0  0  0  0  0  0  0
   -2.1754   11.0894  -10.3032 C   0  0  0  0  0  0  0  0  0  0  0  0
   -3.1851   10.2313  -10.7677 C   0  0  0  0  0  0  0  0  0  0  0  0
   -4.3734   10.1498  -10.0391 C   0  0  0  0  0  0  0  0  0  0  0  0
   -4.5697   10.8877   -8.8727 C   0  0  0  0  0  0  0  0  0  0  0  0
   -3.5102   11.6797   -8.3872 C   0  0  0  0  0  0  0  0  0  0  0  0
   -9.9525    6.1882   -8.9241 F   0  0  0  0  0  0  0  0  0  0  0  0
    0.3009   16.7067  -12.6685 H   0  0  0  0  0  0  0  0  0  0  0  0
   -0.2708   15.2398  -13.5001 H   0  0  0  0  0  0  0  0  0  0  0  0
   -1.4178   16.4061  -12.8238 H   0  0  0  0  0  0  0  0  0  0  0  0
   -1.2955   14.4603  -11.3413 H   0  0  0  0  0  0  0  0  0  0  0  0
   -1.9763   17.1556   -9.1733 H   0  0  0  0  0  0  0  0  0  0  0  0
   -2.4224   16.8813  -10.8642 H   0  0  0  0  0  0  0  0  0  0  0  0
   -2.5210   15.5438   -9.6771 H   0  0  0  0  0  0  0  0  0  0  0  0
    4.0316   14.8436  -11.8443 H   0  0  0  0  0  0  0  0  0  0  0  0
    4.2242   12.5452  -10.8850 H   0  0  0  0  0  0  0  0  0  0  0  0
    2.1629   11.4321  -10.0578 H   0  0  0  0  0  0  0  0  0  0  0  0
   -1.3534   10.8854  -12.8206 H   0  0  0  0  0  0  0  0  0  0  0  0
    0.2088   11.6380  -12.5827 H   0  0  0  0  0  0  0  0  0  0  0  0
    1.0122    9.5826  -11.3379 H   0  0  0  0  0  0  0  0  0  0  0  0
   -0.5530    8.8173  -11.6226 H   0  0  0  0  0  0  0  0  0  0  0  0
    0.4983    9.2069  -12.9920 H   0  0  0  0  0  0  0  0  0  0  0  0
   -0.6178   14.5019   -8.1577 H   0  0  0  0  0  0  0  0  0  0  0  0
   -1.7945   13.6302   -7.2304 H   0  0  0  0  0  0  0  0  0  0  0  0
    0.7667   13.8140   -4.6942 H   0  0  0  0  0  0  0  0  0  0  0  0
    0.1512   15.0948   -5.7488 H   0  0  0  0  0  0  0  0  0  0  0  0
   -0.9613   13.9147   -5.0469 H   0  0  0  0  0  0  0  0  0  0  0  0
    2.3905   13.4514   -6.4240 H   0  0  0  0  0  0  0  0  0  0  0  0
    2.0018   12.6145   -7.9057 H   0  0  0  0  0  0  0  0  0  0  0  0
    1.7178   14.3682   -7.7738 H   0  0  0  0  0  0  0  0  0  0  0  0
    0.1933   10.9766   -7.1489 H   0  0  0  0  0  0  0  0  0  0  0  0
    1.0943   11.4198   -5.6906 H   0  0  0  0  0  0  0  0  0  0  0  0
   -2.8537   10.6256   -4.1129 H   0  0  0  0  0  0  0  0  0  0  0  0
   -2.7637    8.1845   -4.7951 H   0  0  0  0  0  0  0  0  0  0  0  0
   -4.6226    8.2840   -5.2404 H   0  0  0  0  0  0  0  0  0  0  0  0
   -7.3538    7.6651   -4.2445 H   0  0  0  0  0  0  0  0  0  0  0  0
   -8.2288    5.7389   -4.6234 H   0  0  0  0  0  0  0  0  0  0  0  0
   -6.6359    3.5456   -6.0538 H   0  0  0  0  0  0  0  0  0  0  0  0
   -9.2676    3.4460   -4.4791 H   0  0  0  0  0  0  0  0  0  0  0  0
   -9.1273    3.2439   -6.2303 H   0  0  0  0  0  0  0  0  0  0  0  0
   -8.4013    2.0560   -5.1497 H   0  0  0  0  0  0  0  0  0  0  0  0
   -7.1621    4.0285   -3.0771 H   0  0  0  0  0  0  0  0  0  0  0  0
   -6.4363    2.5709   -3.7735 H   0  0  0  0  0  0  0  0  0  0  0  0
   -5.5897    4.1097   -3.8873 H   0  0  0  0  0  0  0  0  0  0  0  0
  -11.8619    6.9567   -7.3614 H   0  0  0  0  0  0  0  0  0  0  0  0
  -11.2116    8.5648   -7.0278 H   0  0  0  0  0  0  0  0  0  0  0  0
  -12.0648    7.4768   -9.7581 H   0  0  0  0  0  0  0  0  0  0  0  0
  -12.8642    8.7155   -8.7926 H   0  0  0  0  0  0  0  0  0  0  0  0
  -15.5369   12.0486   -6.4583 H   0  0  0  0  0  0  0  0  0  0  0  0
  -16.0263   10.5672   -7.2255 H   0  0  0  0  0  0  0  0  0  0  0  0
  -14.3238   11.0857   -7.3120 H   0  0  0  0  0  0  0  0  0  0  0  0
  -15.1877   14.0036   -7.6075 H   0  0  0  0  0  0  0  0  0  0  0  0
  -13.8763   13.3520   -8.6018 H   0  0  0  0  0  0  0  0  0  0  0  0
  -15.2985   14.1326   -9.3393 H   0  0  0  0  0  0  0  0  0  0  0  0
  -15.9990    9.4080   -9.0470 H   0  0  0  0  0  0  0  0  0  0  0  0
  -17.3964   10.3447   -9.6278 H   0  0  0  0  0  0  0  0  0  0  0  0
  -16.2714    9.5894  -10.7673 H   0  0  0  0  0  0  0  0  0  0  0  0
  -16.9873   12.6278  -10.8735 H   0  0  0  0  0  0  0  0  0  0  0  0
  -15.3143   13.0866  -11.2639 H   0  0  0  0  0  0  0  0  0  0  0  0
  -16.0058   11.6280  -11.9509 H   0  0  0  0  0  0  0  0  0  0  0  0
   -9.7097    8.0651  -10.7471 H   0  0  0  0  0  0  0  0  0  0  0  0
   -9.0804    9.6764  -10.3921 H   0  0  0  0  0  0  0  0  0  0  0  0
   -8.8660    9.1683   -8.0188 H   0  0  0  0  0  0  0  0  0  0  0  0
   -7.9878    7.9780   -8.9736 H   0  0  0  0  0  0  0  0  0  0  0  0
   -6.6112    4.9156   -7.8299 H   0  0  0  0  0  0  0  0  0  0  0  0
   -8.2523    4.2873   -8.1636 H   0  0  0  0  0  0  0  0  0  0  0  0
   -7.7224    5.8529   -8.8124 H   0  0  0  0  0  0  0  0  0  0  0  0
   -6.9697    9.9421   -4.3290 H   0  0  0  0  0  0  0  0  0  0  0  0
   -5.4551   10.4617   -3.6561 H   0  0  0  0  0  0  0  0  0  0  0  0
   -4.4749   10.9075   -5.7578 H   0  0  0  0  0  0  0  0  0  0  0  0
   -5.2238    9.0629   -7.2255 H   0  0  0  0  0  0  0  0  0  0  0  0
   -6.8911    9.5322   -7.0115 H   0  0  0  0  0  0  0  0  0  0  0  0
   -5.7651   12.9660   -8.1367 H   0  0  0  0  0  0  0  0  0  0  0  0
   -7.2308   12.2828   -8.8456 H   0  0  0  0  0  0  0  0  0  0  0  0
   -7.5533   13.2360   -6.5317 H   0  0  0  0  0  0  0  0  0  0  0  0
   -7.9994   11.5297   -6.5981 H   0  0  0  0  0  0  0  0  0  0  0  0
   -3.7150    8.3106   -0.7578 H   0  0  0  0  0  0  0  0  0  0  0  0
   -2.1600    7.7306   -1.3835 H   0  0  0  0  0  0  0  0  0  0  0  0
   -3.1916   10.6271   -1.3489 H   0  0  0  0  0  0  0  0  0  0  0  0
   -1.8440    9.9899   -0.3979 H   0  0  0  0  0  0  0  0  0  0  0  0
   -0.4797    9.6917   -2.3837 H   0  0  0  0  0  0  0  0  0  0  0  0
   -1.1453   11.3150   -2.4530 H   0  0  0  0  0  0  0  0  0  0  0  0
   -3.0768    9.6703  -11.6889 H   0  0  0  0  0  0  0  0  0  0  0  0
   -5.1817    9.5279  -10.4163 H   0  0  0  0  0  0  0  0  0  0  0  0
   -3.6344   12.2544   -7.4758 H   0  0  0  0  0  0  0  0  0  0  0  0
  1  2  1  0
  2  3  1  0
  2  5  1  0
  3  4  1  0
  5  6  2  0
  5 10  1  0
  6  7  1  0
  7  8  2  0
  8  9  1  0
  9 10  2  0
 10 11  1  0
 11 12  1  0
 11 15  2  0
 12 13  1  0
 12 68  1  0
 13 14  1  0
 15 16  1  0
 15 67  1  0
 16 17  1  0
 17 18  1  0
 17 19  1  0
 17 20  1  0
 20 21  1  0
 21 22  1  0
 22 23  1  0
 22 66  2  0
 23 24  1  0
 23 65  1  0
 24 25  1  0
 25 26  1  0
 25 63  1  0
 26 27  1  0
 26 62  2  0
 27 28  1  0
 27 55  1  0
 28 29  1  0
 29 30  1  0
 29 54  2  0
 30 31  1  0
 30 34  1  0
 31 32  1  0
 31 33  1  0
 34 35  1  0
 34 53  1  0
 35 36  1  0
 35 52  2  0
 36 37  1  0
 36 51  1  0
 36 73  1  0
 37 38  1  0
 38 39  1  0
 39 40  1  0
 39 50  1  0
 40 41  1  0
 40 49  2  0
 42 43  1  0
 43 44  1  0
 43 47  1  0
 43 48  1  0
 44 45  1  0
 44 46  1  0
 50 51  1  0
 55 56  1  0
 56 57  1  0
 56 61  1  0
 57 58  1  0
 58 59  1  0
 58 71  1  0
 59 60  1  0
 60 61  1  0
 63 64  1  0
 64 65  1  0
 67 68  2  0
 67 72  1  0
 68 69  1  0
 69 70  2  0
 70 71  1  0
 71 72  2  0
 41 42  3  0
  1 74  1  0
  1 75  1  0
  1 76  1  0
  2 77  1  6
  4 78  1  0
  4 79  1  0
  4 80  1  0
  7 81  1  0
  8 82  1  0
  9 83  1  0
 13 84  1  0
 13 85  1  0
 14 86  1  0
 14 87  1  0
 14 88  1  0
 16 89  1  0
 16 90  1  0
 18 91  1  0
 18 92  1  0
 18 93  1  0
 19 94  1  0
 19 95  1  0
 19 96  1  0
 20 97  1  0
 20 98  1  0
 23 99  1  6
 24100  1  0
 27101  1  6
 28102  1  0
 30103  1  1
 31104  1  0
 32105  1  0
 32106  1  0
 32107  1  0
 33108  1  0
 33109  1  0
 33110  1  0
 37111  1  0
 37112  1  0
 38113  1  0
 38114  1  0
 45115  1  0
 45116  1  0
 45117  1  0
 46118  1  0
 46119  1  0
 46120  1  0
 47121  1  0
 47122  1  0
 47123  1  0
 48124  1  0
 48125  1  0
 48126  1  0
 50127  1  0
 50128  1  0
 51129  1  0
 51130  1  0
 53131  1  0
 53132  1  0
 53133  1  0
 55134  1  0
 55135  1  0
 56136  1  6
 57137  1  0
 57138  1  0
 59139  1  0
 59140  1  0
 60141  1  0
 60142  1  0
 63143  1  0
 63144  1  0
 64145  1  0
 64146  1  0
 65147  1  0
 65148  1  0
 69149  1  0
 70150  1  0
 72151  1  0
M  END
$$$$
