mol_bioactive_17
     RDKit          3D

151157  0  0  0  0  0  0  0  0999 V2000
   -0.8832   15.8810  -10.3372 C   0  0  0  0  0  0  0  0  0  0  0  0
   -0.0272   15.2489  -11.4294 C   0  0  2  0  0  0  0  0  0  0  0  0
   -0.7962   14.3942  -12.2915 O   0  0  0  0  0  0  0  0  0  0  0  0
   -1.6729   15.1013  -13.1564 C   0  0  0  0  0  0  0  0  0  0  0  0
    1.1827   14.4869  -10.9018 C   0  0  0  0  0  0  0  0  0  0  0  0
    2.3837   15.0409  -11.2591 N   0  0  0  0  0  0  0  0  0  0  0  0
    3.5162   14.3745  -10.9542 C   0  0  0  0  0  0  0  0  0  0  0  0
    3.5340   13.1571  -10.3073 C   0  0  0  0  0  0  0  0  0  0  0  0
    2.3165   12.6070   -9.9249 C   0  0  0  0  0  0  0  0  0  0  0  0
    1.1124   13.2801  -10.1832 C   0  0  0  0  0  0  0  0  0  0  0  0
   -0.1376   12.6340   -9.7673 C   0  0  0  0  0  0  0  0  0  0  0  0
   -0.7792   11.7030  -10.5684 N   0  0  0  0  0  0  0  0  0  0  0  0
   -0.2954   11.1941  -11.8482 C   0  0  0  0  0  0  0  0  0  0  0  0
    0.3138    9.8074  -11.7195 C   0  0  0  0  0  0  0  0  0  0  0  0
   -0.9076   12.7902   -8.6112 C   0  0  0  0  0  0  0  0  0  0  0  0
   -0.6595   13.6893   -7.4197 C   0  0  0  0  0  0  0  0  0  0  0  0
    0.3276   13.2281   -6.3062 C   0  0  0  0  0  0  0  0  0  0  0  0
    0.0008   14.0457   -5.0317 C   0  0  0  0  0  0  0  0  0  0  0  0
    1.7810   13.5670   -6.6840 C   0  0  0  0  0  0  0  0  0  0  0  0
    0.2580   11.7154   -5.9943 C   0  0  0  0  0  0  0  0  0  0  0  0
   -0.8696   11.3944   -5.1697 O   0  0  0  0  0  0  0  0  0  0  0  0
   -0.8984   10.0827   -4.7848 C   0  0  0  0  0  0  0  0  0  0  0  0
   -1.9550    9.8772   -3.6979 C   0  0  1  0  0  0  0  0  0  0  0  0
   -2.4995    8.5153   -3.7919 N   0  0  0  0  0  0  0  0  0  0  0  0
   -3.4636    8.2704   -2.7936 N   0  0  0  0  0  0  0  0  0  0  0  0
   -4.8156    8.0146   -3.0333 C   0  0  0  0  0  0  0  0  0  0  0  0
   -5.3726    8.4036   -4.4194 C   0  0  1  0  0  0  0  0  0  0  0  0
   -6.5041    7.5448   -4.7528 N   0  0  0  0  0  0  0  0  0  0  0  0
   -6.3042    6.3108   -5.3433 C   0  0  0  0  0  0  0  0  0  0  0  0
   -7.5893    5.4553   -5.4512 C   0  0  2  0  0  0  0  0  0  0  0  0
   -7.3038    3.9313   -5.4428 C   0  0  0  0  0  0  0  0  0  0  0  0
   -8.6087    3.1275   -5.5170 C   0  0  0  0  0  0  0  0  0  0  0  0
   -6.5534    3.5182   -4.1670 C   0  0  0  0  0  0  0  0  0  0  0  0
   -8.2970    5.9590   -6.6581 N   0  0  0  0  0  0  0  0  0  0  0  0
   -9.2629    6.9477   -6.4783 C   0  0  0  0  0  0  0  0  0  0  0  0
   -9.9703    7.5641   -7.7064 C   0  0  0  0  0  0  0  0  0  0  0  0
   -9.1197    8.7380   -8.2242 C   0  0  0  0  0  0  0  0  0  0  0  0
   -9.8418    9.4973   -9.3292 C   0  0  0  0  0  0  0  0  0  0  0  0
  -11.1495    9.9139   -8.8472 N   0  0  0  0  0  0  0  0  0  0  0  0
  -11.2933   11.2089   -8.3528 C   0  0  0  0  0  0  0  0  0  0  0  0
  -12.5335   11.5542   -7.6931 C   0  0  0  0  0  0  0  0  0  0  0  0
  -13.5599   11.8061   -7.1207 C   0  0  0  0  0  0  0  0  0  0  0  0
  -14.8204   12.0675   -6.3857 C   0  0  0  0  0  0  0  0  0  0  0  0
  -14.6186   12.0674   -4.9092 N   0  0  0  0  0  0  0  0  0  0  0  0
  -14.0794   10.8149   -4.3694 C   0  0  0  0  0  0  0  0  0  0  0  0
  -13.8135   13.1909   -4.4152 C   0  0  0  0  0  0  0  0  0  0  0  0
  -15.4019   13.4166   -6.8684 C   0  0  0  0  0  0  0  0  0  0  0  0
  -15.8506   10.9817   -6.7799 C   0  0  0  0  0  0  0  0  0  0  0  0
  -10.4215   12.0674   -8.4232 O   0  0  0  0  0  0  0  0  0  0  0  0
  -12.0238    8.8078   -8.4699 C   0  0  0  0  0  0  0  0  0  0  0  0
  -11.3864    8.0327   -7.3216 C   0  0  0  0  0  0  0  0  0  0  0  0
   -9.4988    7.3933   -5.3459 O   0  0  0  0  0  0  0  0  0  0  0  0
   -7.8378    5.4858   -7.9640 C   0  0  0  0  0  0  0  0  0  0  0  0
   -5.2255    5.9837   -5.8331 O   0  0  0  0  0  0  0  0  0  0  0  0
   -5.8234    9.8704   -4.3593 C   0  0  0  0  0  0  0  0  0  0  0  0
   -5.3794   10.7257   -5.5516 C   0  0  1  0  0  0  0  0  0  0  0  0
   -5.7316   10.1016   -6.9210 C   0  0  0  0  0  0  0  0  0  0  0  0
   -5.6780   11.0865   -8.0147 N   0  0  0  0  0  0  0  0  0  0  0  0
   -6.3125   12.3898   -7.7106 C   0  0  0  0  0  0  0  0  0  0  0  0
   -6.9207   12.4069   -6.3036 C   0  0  0  0  0  0  0  0  0  0  0  0
   -5.9383   12.0413   -5.3243 O   0  0  0  0  0  0  0  0  0  0  0  0
   -5.5801    7.6110   -2.1486 O   0  0  0  0  0  0  0  0  0  0  0  0
   -2.9181    8.2893   -1.4357 C   0  0  0  0  0  0  0  0  0  0  0  0
   -2.2774    9.6583   -1.1802 C   0  0  0  0  0  0  0  0  0  0  0  0
   -1.3128   10.0509   -2.3109 C   0  0  0  0  0  0  0  0  0  0  0  0
   -0.1533    9.2122   -5.2185 O   0  0  0  0  0  0  0  0  0  0  0  0
   -2.1263   12.0468   -8.8253 C   0  0  0  0  0  0  0  0  0  0  0  0
   -2.0092   11.3717  -10.0372 C   0  0  0  0  0  0  0  0  0  0  0  0
   -3.0320   10.5488  -10.5370 C   0  0  0  0  0  0  0  0  0  0  0  0
   -4.2261   10.4679   -9.8175 C   0  0  0  0  0  0  0  0  0  0  0  0
   -4.4153   11.1702   -8.6280 C   0  0  0  0  0  0  0  0  0  0  0  0
   -3.3447   11.9251   -8.1113 C   0  0  0  0  0  0  0  0  0  0  0  0
  -10.1261    6.6588   -8.7249 F   0  0  0  0  0  0  0  0  0  0  0  0
   -1.5829   15.1638   -9.9018 H   0  0  0  0  0  0  0  0  0  0  0  0
   -0.2723   16.3242   -9.5452 H   0  0  0  0  0  0  0  0  0  0  0  0
   -1.5043   16.6797  -10.7573 H   0  0  0  0  0  0  0  0  0  0  0  0
    0.3706   16.0667  -12.0447 H   0  0  0  0  0  0  0  0  0  0  0  0
   -2.4540   15.6113  -12.5886 H   0  0  0  0  0  0  0  0  0  0  0  0
   -1.1180   15.8170  -13.7688 H   0  0  0  0  0  0  0  0  0  0  0  0
   -2.1523   14.3769  -13.8208 H   0  0  0  0  0  0  0  0  0  0  0  0
    4.4366   14.8566  -11.2694 H   0  0  0  0  0  0  0  0  0  0  0  0
    4.4686   12.6479  -10.1020 H   0  0  0  0  0  0  0  0  0  0  0  0
    2.3030   11.6442   -9.4164 H   0  0  0  0  0  0  0  0  0  0  0  0
   -1.1410   11.1845  -12.5444 H   0  0  0  0  0  0  0  0  0  0  0  0
    0.4387   11.8896  -12.2628 H   0  0  0  0  0  0  0  0  0  0  0  0
    1.1855    9.8182  -11.0570 H   0  0  0  0  0  0  0  0  0  0  0  0
   -0.4050    9.0907  -11.3096 H   0  0  0  0  0  0  0  0  0  0  0  0
    0.6346    9.4439  -12.6993 H   0  0  0  0  0  0  0  0  0  0  0  0
   -0.3403   14.6731   -7.7882 H   0  0  0  0  0  0  0  0  0  0  0  0
   -1.6361   13.8834   -6.9538 H   0  0  0  0  0  0  0  0  0  0  0  0
    0.6441   13.7481   -4.1942 H   0  0  0  0  0  0  0  0  0  0  0  0
    0.1500   15.1170   -5.2041 H   0  0  0  0  0  0  0  0  0  0  0  0
   -1.0388   13.9062   -4.7140 H   0  0  0  0  0  0  0  0  0  0  0  0
    2.4360   13.5279   -5.8045 H   0  0  0  0  0  0  0  0  0  0  0  0
    2.1846   12.8453   -7.3916 H   0  0  0  0  0  0  0  0  0  0  0  0
    1.8716   14.5725   -7.1109 H   0  0  0  0  0  0  0  0  0  0  0  0
    0.2329   11.1164   -6.9125 H   0  0  0  0  0  0  0  0  0  0  0  0
    1.1626   11.4262   -5.4401 H   0  0  0  0  0  0  0  0  0  0  0  0
   -2.7617   10.6044   -3.8463 H   0  0  0  0  0  0  0  0  0  0  0  0
   -2.7523    8.2285   -4.7361 H   0  0  0  0  0  0  0  0  0  0  0  0
   -4.6125    8.2495   -5.1843 H   0  0  0  0  0  0  0  0  0  0  0  0
   -7.3401    7.6357   -4.1781 H   0  0  0  0  0  0  0  0  0  0  0  0
   -8.1976    5.6694   -4.5631 H   0  0  0  0  0  0  0  0  0  0  0  0
   -6.6769    3.6524   -6.2971 H   0  0  0  0  0  0  0  0  0  0  0  0
   -9.2739    3.3771   -4.6827 H   0  0  0  0  0  0  0  0  0  0  0  0
   -9.1517    3.3190   -6.4473 H   0  0  0  0  0  0  0  0  0  0  0  0
   -8.4035    2.0527   -5.4747 H   0  0  0  0  0  0  0  0  0  0  0  0
   -7.1207    3.7844   -3.2683 H   0  0  0  0  0  0  0  0  0  0  0  0
   -6.3843    2.4364   -4.1520 H   0  0  0  0  0  0  0  0  0  0  0  0
   -5.5724    3.9985   -4.1025 H   0  0  0  0  0  0  0  0  0  0  0  0
   -8.9120    9.4243   -7.3945 H   0  0  0  0  0  0  0  0  0  0  0  0
   -8.1541    8.3914   -8.6055 H   0  0  0  0  0  0  0  0  0  0  0  0
   -9.2472   10.3605   -9.6439 H   0  0  0  0  0  0  0  0  0  0  0  0
   -9.9898    8.8606  -10.2088 H   0  0  0  0  0  0  0  0  0  0  0  0
  -14.0489   10.8569   -3.2740 H   0  0  0  0  0  0  0  0  0  0  0  0
  -14.7153    9.9570   -4.6051 H   0  0  0  0  0  0  0  0  0  0  0  0
  -13.0627   10.6052   -4.7212 H   0  0  0  0  0  0  0  0  0  0  0  0
  -13.6996   13.1314   -3.3271 H   0  0  0  0  0  0  0  0  0  0  0  0
  -12.8121   13.2193   -4.8554 H   0  0  0  0  0  0  0  0  0  0  0  0
  -14.3095   14.1476   -4.5984 H   0  0  0  0  0  0  0  0  0  0  0  0
  -16.3034   13.6845   -6.3048 H   0  0  0  0  0  0  0  0  0  0  0  0
  -14.6817   14.2382   -6.7787 H   0  0  0  0  0  0  0  0  0  0  0  0
  -15.6825   13.3702   -7.9294 H   0  0  0  0  0  0  0  0  0  0  0  0
  -16.7821   11.0878   -6.2117 H   0  0  0  0  0  0  0  0  0  0  0  0
  -16.1061   11.0514   -7.8443 H   0  0  0  0  0  0  0  0  0  0  0  0
  -15.4699    9.9652   -6.6282 H   0  0  0  0  0  0  0  0  0  0  0  0
  -13.0188    9.1574   -8.1826 H   0  0  0  0  0  0  0  0  0  0  0  0
  -12.1522    8.1652   -9.3495 H   0  0  0  0  0  0  0  0  0  0  0  0
  -12.0116    7.1645   -7.0812 H   0  0  0  0  0  0  0  0  0  0  0  0
  -11.3544    8.6721   -6.4314 H   0  0  0  0  0  0  0  0  0  0  0  0
   -6.7762    5.2271   -7.9264 H   0  0  0  0  0  0  0  0  0  0  0  0
   -8.4195    4.6017   -8.2390 H   0  0  0  0  0  0  0  0  0  0  0  0
   -7.9560    6.2396   -8.7408 H   0  0  0  0  0  0  0  0  0  0  0  0
   -6.9168    9.9339   -4.2671 H   0  0  0  0  0  0  0  0  0  0  0  0
   -5.4456   10.3589   -3.4505 H   0  0  0  0  0  0  0  0  0  0  0  0
   -4.2937   10.8546   -5.5014 H   0  0  0  0  0  0  0  0  0  0  0  0
   -5.0970    9.2344   -7.1380 H   0  0  0  0  0  0  0  0  0  0  0  0
   -6.7549    9.7161   -6.8831 H   0  0  0  0  0  0  0  0  0  0  0  0
   -5.5996   13.2211   -7.7835 H   0  0  0  0  0  0  0  0  0  0  0  0
   -7.0984   12.5788   -8.4509 H   0  0  0  0  0  0  0  0  0  0  0  0
   -7.2764   13.4141   -6.0623 H   0  0  0  0  0  0  0  0  0  0  0  0
   -7.7810   11.7298   -6.2249 H   0  0  0  0  0  0  0  0  0  0  0  0
   -3.7003    8.0974   -0.6946 H   0  0  0  0  0  0  0  0  0  0  0  0
   -2.1729    7.4885   -1.3573 H   0  0  0  0  0  0  0  0  0  0  0  0
   -3.0674   10.4172   -1.1151 H   0  0  0  0  0  0  0  0  0  0  0  0
   -1.7501    9.6555   -0.2200 H   0  0  0  0  0  0  0  0  0  0  0  0
   -0.4069    9.4335   -2.2369 H   0  0  0  0  0  0  0  0  0  0  0  0
   -0.9905   11.0897   -2.1756 H   0  0  0  0  0  0  0  0  0  0  0  0
   -2.9290   10.0190  -11.4779 H   0  0  0  0  0  0  0  0  0  0  0  0
   -5.0417    9.8709  -10.2170 H   0  0  0  0  0  0  0  0  0  0  0  0
   -3.4644   12.4631   -7.1766 H   0  0  0  0  0  0  0  0  0  0  0  0
  1  2  1  0
  2  3  1  0
  2  5  1  0
  3  4  1  0
  5  6  2  0
  5 10  1  0
  6  7  1  0
  7  8  2  0
  8  9  1  0
  9 10  2  0
 10 11  1  0
 11 12  1  0
 11 15  2  0
 12 13  1  0
 12 68  1  0
 13 14  1  0
 15 16  1  0
 15 67  1  0
 16 17  1  0
 17 18  1  0
 17 19  1  0
 17 20  1  0
 20 21  1  0
 21 22  1  0
 22 23  1  0
 22 66  2  0
 23 24  1  0
 23 65  1  0
 24 25  1  0
 25 26  1  0
 25 63  1  0
 26 27  1  0
 26 62  2  0
 27 28  1  0
 27 55  1  0
 28 29  1  0
 29 30  1  0
 29 54  2  0
 30 31  1  0
 30 34  1  0
 31 32  1  0
 31 33  1  0
 34 35  1  0
 34 53  1  0
 35 36  1  0
 35 52  2  0
 36 37  1  0
 36 51  1  0
 36 73  1  0
 37 38  1  0
 38 39  1  0
 39 40  1  0
 39 50  1  0
 40 41  1  0
 40 49  2  0
 42 43  1  0
 43 44  1  0
 43 47  1  0
 43 48  1  0
 44 45  1  0
 44 46  1  0
 50 51  1  0
 55 56  1  0
 56 57  1  0
 56 61  1  0
 57 58  1  0
 58 59  1  0
 58 71  1  0
 59 60  1  0
 60 61  1  0
 63 64  1  0
 64 65  1  0
 67 68  2  0
 67 72  1  0
 68 69  1  0
 69 70  2  0
 70 71  1  0
 71 72  2  0
 41 42  3  0
  1 74  1  0
  1 75  1  0
  1 76  1  0
  2 77  1  6
  4 78  1  0
  4 79  1  0
  4 80  1  0
  7 81  1  0
  8 82  1  0
  9 83  1  0
 13 84  1  0
 13 85  1  0
 14 86  1  0
 14 87  1  0
 14 88  1  0
 16 89  1  0
 16 90  1  0
 18 91  1  0
 18 92  1  0
 18 93  1  0
 19 94  1  0
 19 95  1  0
 19 96  1  0
 20 97  1  0
 20 98  1  0
 23 99  1  6
 24100  1  0
 27101  1  6
 28102  1  0
 30103  1  1
 31104  1  0
 32105  1  0
 32106  1  0
 32107  1  0
 33108  1  0
 33109  1  0
 33110  1  0
 37111  1  0
 37112  1  0
 38113  1  0
 38114  1  0
 45115  1  0
 45116  1  0
 45117  1  0
 46118  1  0
 46119  1  0
 46120  1  0
 47121  1  0
 47122  1  0
 47123  1  0
 48124  1  0
 48125  1  0
 48126  1  0
 50127  1  0
 50128  1  0
 51129  1  0
 51130  1  0
 53131  1  0
 53132  1  0
 53133  1  0
 55134  1  0
 55135  1  0
 56136  1  6
 57137  1  0
 57138  1  0
 59139  1  0
 59140  1  0
 60141  1  0
 60142  1  0
 63143  1  0
 63144  1  0
 64145  1  0
 64146  1  0
 65147  1  0
 65148  1  0
 69149  1  0
 70150  1  0
 72151  1  0
M  END
$$$$
