mol_bioactive_10
     RDKit          3D

151157  0  0  0  0  0  0  0  0999 V2000
   -0.2259   16.2170  -10.4024 C   0  0  0  0  0  0  0  0  0  0  0  0
    0.3187   15.1949  -11.3981 C   0  0  2  0  0  0  0  0  0  0  0  0
   -0.7323   14.3904  -11.9536 O   0  0  0  0  0  0  0  0  0  0  0  0
   -1.4675   15.0495  -12.9722 C   0  0  0  0  0  0  0  0  0  0  0  0
    1.4329   14.3482  -10.7908 C   0  0  0  0  0  0  0  0  0  0  0  0
    2.6913   14.7890  -11.1096 N   0  0  0  0  0  0  0  0  0  0  0  0
    3.7518   14.0636  -10.6989 C   0  0  0  0  0  0  0  0  0  0  0  0
    3.6413   12.8938   -9.9781 C   0  0  0  0  0  0  0  0  0  0  0  0
    2.3672   12.4590   -9.6374 C   0  0  0  0  0  0  0  0  0  0  0  0
    1.2319   13.1987  -10.0049 C   0  0  0  0  0  0  0  0  0  0  0  0
   -0.0777   12.6561   -9.6265 C   0  0  0  0  0  0  0  0  0  0  0  0
   -0.7207   11.7088  -10.4118 N   0  0  0  0  0  0  0  0  0  0  0  0
   -0.2137   11.1498  -11.6618 C   0  0  0  0  0  0  0  0  0  0  0  0
    0.3709    9.7600  -11.4780 C   0  0  0  0  0  0  0  0  0  0  0  0
   -0.8960   12.9050   -8.5219 C   0  0  0  0  0  0  0  0  0  0  0  0
   -0.6894   13.8746   -7.3767 C   0  0  0  0  0  0  0  0  0  0  0  0
    0.3036   13.5303   -6.2299 C   0  0  0  0  0  0  0  0  0  0  0  0
   -0.0723   14.4151   -5.0157 C   0  0  0  0  0  0  0  0  0  0  0  0
    1.7474   13.9008   -6.6140 C   0  0  0  0  0  0  0  0  0  0  0  0
    0.2899   12.0401   -5.8192 C   0  0  0  0  0  0  0  0  0  0  0  0
   -0.8683   11.7079   -5.0426 O   0  0  0  0  0  0  0  0  0  0  0  0
   -0.8535   10.4138   -4.6009 C   0  0  0  0  0  0  0  0  0  0  0  0
   -1.9738   10.1760   -3.5849 C   0  0  1  0  0  0  0  0  0  0  0  0
   -2.4579    8.7940   -3.7075 N   0  0  0  0  0  0  0  0  0  0  0  0
   -3.4542    8.4978   -2.7565 N   0  0  0  0  0  0  0  0  0  0  0  0
   -4.7445    8.0653   -3.0731 C   0  0  0  0  0  0  0  0  0  0  0  0
   -5.2913    8.4397   -4.4707 C   0  0  1  0  0  0  0  0  0  0  0  0
   -6.3207    7.4733   -4.8526 N   0  0  0  0  0  0  0  0  0  0  0  0
   -5.9679    6.3269   -5.5411 C   0  0  0  0  0  0  0  0  0  0  0  0
   -7.0863    5.2620   -5.6542 C   0  0  2  0  0  0  0  0  0  0  0  0
   -6.5460    3.8427   -5.3324 C   0  0  0  0  0  0  0  0  0  0  0  0
   -7.6079    2.7681   -5.5943 C   0  0  0  0  0  0  0  0  0  0  0  0
   -6.0989    3.7492   -3.8676 C   0  0  0  0  0  0  0  0  0  0  0  0
   -7.7209    5.3485   -6.9947 N   0  0  0  0  0  0  0  0  0  0  0  0
   -9.0070    5.9009   -7.0689 C   0  0  0  0  0  0  0  0  0  0  0  0
   -9.7296    5.9236   -8.4380 C   0  0  0  0  0  0  0  0  0  0  0  0
  -10.9201    6.8970   -8.4075 C   0  0  0  0  0  0  0  0  0  0  0  0
  -11.7392    6.8090   -9.6928 C   0  0  0  0  0  0  0  0  0  0  0  0
  -12.1264    5.4278   -9.9505 N   0  0  0  0  0  0  0  0  0  0  0  0
  -13.4295    4.9621  -10.0420 C   0  0  0  0  0  0  0  0  0  0  0  0
  -14.5294    5.8843   -9.8584 C   0  0  0  0  0  0  0  0  0  0  0  0
  -15.4959    6.5792   -9.6855 C   0  0  0  0  0  0  0  0  0  0  0  0
  -16.7367    7.3565   -9.4493 C   0  0  0  0  0  0  0  0  0  0  0  0
  -16.5152    8.5355   -8.5696 N   0  0  0  0  0  0  0  0  0  0  0  0
  -16.0257    8.2018   -7.2285 C   0  0  0  0  0  0  0  0  0  0  0  0
  -15.6675    9.5745   -9.1553 C   0  0  0  0  0  0  0  0  0  0  0  0
  -17.7888    6.4085   -8.8196 C   0  0  0  0  0  0  0  0  0  0  0  0
  -17.3150    7.7904  -10.8194 C   0  0  0  0  0  0  0  0  0  0  0  0
  -13.7129    3.7866  -10.2501 O   0  0  0  0  0  0  0  0  0  0  0  0
  -11.0243    4.4855  -10.0529 C   0  0  0  0  0  0  0  0  0  0  0  0
  -10.2066    4.5001   -8.7669 C   0  0  0  0  0  0  0  0  0  0  0  0
   -9.6024    6.2480   -6.0497 O   0  0  0  0  0  0  0  0  0  0  0  0
   -6.8531    5.1919   -8.1623 C   0  0  0  0  0  0  0  0  0  0  0  0
   -4.8746    6.2111   -6.0942 O   0  0  0  0  0  0  0  0  0  0  0  0
   -5.8794    9.8526   -4.3822 C   0  0  0  0  0  0  0  0  0  0  0  0
   -5.4757   10.7767   -5.5342 C   0  0  1  0  0  0  0  0  0  0  0  0
   -5.8325   10.2113   -6.9320 C   0  0  0  0  0  0  0  0  0  0  0  0
   -5.6936   11.2512   -7.9721 N   0  0  0  0  0  0  0  0  0  0  0  0
   -6.2904   12.5596   -7.6239 C   0  0  0  0  0  0  0  0  0  0  0  0
   -6.9700   12.5214   -6.2506 C   0  0  0  0  0  0  0  0  0  0  0  0
   -6.0662   12.0669   -5.2377 O   0  0  0  0  0  0  0  0  0  0  0  0
   -5.4887    7.5258   -2.2444 O   0  0  0  0  0  0  0  0  0  0  0  0
   -2.9766    8.5300   -1.3742 C   0  0  0  0  0  0  0  0  0  0  0  0
   -2.4136    9.9258   -1.0807 C   0  0  0  0  0  0  0  0  0  0  0  0
   -1.4158   10.3749   -2.1630 C   0  0  0  0  0  0  0  0  0  0  0  0
   -0.0276    9.5743   -4.9424 O   0  0  0  0  0  0  0  0  0  0  0  0
   -2.1149   12.1530   -8.7314 C   0  0  0  0  0  0  0  0  0  0  0  0
   -1.9682   11.4164   -9.9029 C   0  0  0  0  0  0  0  0  0  0  0  0
   -2.9844   10.5812  -10.3924 C   0  0  0  0  0  0  0  0  0  0  0  0
   -4.1983   10.5381   -9.7045 C   0  0  0  0  0  0  0  0  0  0  0  0
   -4.4152   11.2958   -8.5532 C   0  0  0  0  0  0  0  0  0  0  0  0
   -3.3520   12.0685   -8.0455 C   0  0  0  0  0  0  0  0  0  0  0  0
   -8.9057    6.3496   -9.4476 F   0  0  0  0  0  0  0  0  0  0  0  0
   -0.9161   15.7531   -9.6924 H   0  0  0  0  0  0  0  0  0  0  0  0
    0.5806   16.7163   -9.8508 H   0  0  0  0  0  0  0  0  0  0  0  0
   -0.8012   16.9927  -10.9177 H   0  0  0  0  0  0  0  0  0  0  0  0
    0.7827   15.7494  -12.2287 H   0  0  0  0  0  0  0  0  0  0  0  0
   -2.2740   14.3840  -13.2951 H   0  0  0  0  0  0  0  0  0  0  0  0
   -1.9165   15.9780  -12.6059 H   0  0  0  0  0  0  0  0  0  0  0  0
   -0.8232   15.2566  -13.8318 H   0  0  0  0  0  0  0  0  0  0  0  0
    4.7224   14.4550  -10.9894 H   0  0  0  0  0  0  0  0  0  0  0  0
    4.5230   12.3355   -9.6831 H   0  0  0  0  0  0  0  0  0  0  0  0
    2.2550   11.5376   -9.0707 H   0  0  0  0  0  0  0  0  0  0  0  0
   -1.0398   11.1319  -12.3798 H   0  0  0  0  0  0  0  0  0  0  0  0
    0.5400   11.8189  -12.0807 H   0  0  0  0  0  0  0  0  0  0  0  0
    1.2019    9.7670  -10.7639 H   0  0  0  0  0  0  0  0  0  0  0  0
   -0.3794    9.0545  -11.1053 H   0  0  0  0  0  0  0  0  0  0  0  0
    0.7477    9.3772  -12.4325 H   0  0  0  0  0  0  0  0  0  0  0  0
   -0.4067   14.8467   -7.7969 H   0  0  0  0  0  0  0  0  0  0  0  0
   -1.6764   14.0522   -6.9263 H   0  0  0  0  0  0  0  0  0  0  0  0
    0.5728   14.2041   -4.1542 H   0  0  0  0  0  0  0  0  0  0  0  0
    0.0326   15.4795   -5.2587 H   0  0  0  0  0  0  0  0  0  0  0  0
   -1.1080   14.2514   -4.6982 H   0  0  0  0  0  0  0  0  0  0  0  0
    2.3772   14.0220   -5.7242 H   0  0  0  0  0  0  0  0  0  0  0  0
    2.2150   13.1110   -7.2017 H   0  0  0  0  0  0  0  0  0  0  0  0
    1.8007   14.8381   -7.1770 H   0  0  0  0  0  0  0  0  0  0  0  0
    0.3547   11.3849   -6.6949 H   0  0  0  0  0  0  0  0  0  0  0  0
    1.1693   11.8414   -5.1928 H   0  0  0  0  0  0  0  0  0  0  0  0
   -2.7950   10.8733   -3.7883 H   0  0  0  0  0  0  0  0  0  0  0  0
   -2.6502    8.5038   -4.6646 H   0  0  0  0  0  0  0  0  0  0  0  0
   -4.4928    8.3905   -5.2095 H   0  0  0  0  0  0  0  0  0  0  0  0
   -7.0878    7.3765   -4.1922 H   0  0  0  0  0  0  0  0  0  0  0  0
   -7.8376    5.4916   -4.8865 H   0  0  0  0  0  0  0  0  0  0  0  0
   -5.6701    3.6169   -5.9568 H   0  0  0  0  0  0  0  0  0  0  0  0
   -8.5159    2.9590   -5.0089 H   0  0  0  0  0  0  0  0  0  0  0  0
   -7.8877    2.7331   -6.6530 H   0  0  0  0  0  0  0  0  0  0  0  0
   -7.2310    1.7731   -5.3286 H   0  0  0  0  0  0  0  0  0  0  0  0
   -6.9256    3.9774   -3.1836 H   0  0  0  0  0  0  0  0  0  0  0  0
   -5.7426    2.7381   -3.6367 H   0  0  0  0  0  0  0  0  0  0  0  0
   -5.2795    4.4431   -3.6559 H   0  0  0  0  0  0  0  0  0  0  0  0
  -11.5737    6.6784   -7.5543 H   0  0  0  0  0  0  0  0  0  0  0  0
  -10.5577    7.9249   -8.2847 H   0  0  0  0  0  0  0  0  0  0  0  0
  -12.6073    7.4670   -9.6213 H   0  0  0  0  0  0  0  0  0  0  0  0
  -11.1442    7.1489  -10.5514 H   0  0  0  0  0  0  0  0  0  0  0  0
  -15.9461    9.1087   -6.6154 H   0  0  0  0  0  0  0  0  0  0  0  0
  -16.7206    7.5535   -6.6874 H   0  0  0  0  0  0  0  0  0  0  0  0
  -15.0385    7.7268   -7.2439 H   0  0  0  0  0  0  0  0  0  0  0  0
  -15.5658   10.4208   -8.4658 H   0  0  0  0  0  0  0  0  0  0  0  0
  -14.6603    9.2156   -9.3934 H   0  0  0  0  0  0  0  0  0  0  0  0
  -16.1146    9.9993  -10.0602 H   0  0  0  0  0  0  0  0  0  0  0  0
  -17.4166    5.9086   -7.9185 H   0  0  0  0  0  0  0  0  0  0  0  0
  -18.7067    6.9486   -8.5572 H   0  0  0  0  0  0  0  0  0  0  0  0
  -18.0684    5.6064   -9.5156 H   0  0  0  0  0  0  0  0  0  0  0  0
  -18.2014    8.4241  -10.6899 H   0  0  0  0  0  0  0  0  0  0  0  0
  -16.5841    8.3375  -11.4257 H   0  0  0  0  0  0  0  0  0  0  0  0
  -17.6162    6.9213  -11.4182 H   0  0  0  0  0  0  0  0  0  0  0  0
  -11.3813    3.4689  -10.2510 H   0  0  0  0  0  0  0  0  0  0  0  0
  -10.4072    4.7848  -10.9082 H   0  0  0  0  0  0  0  0  0  0  0  0
   -9.3634    3.8116   -8.8788 H   0  0  0  0  0  0  0  0  0  0  0  0
  -10.8175    4.1164   -7.9389 H   0  0  0  0  0  0  0  0  0  0  0  0
   -6.0319    4.5037   -7.9468 H   0  0  0  0  0  0  0  0  0  0  0  0
   -7.3959    4.7847   -9.0119 H   0  0  0  0  0  0  0  0  0  0  0  0
   -6.4553    6.1736   -8.4370 H   0  0  0  0  0  0  0  0  0  0  0  0
   -6.9771    9.8171   -4.3171 H   0  0  0  0  0  0  0  0  0  0  0  0
   -5.5691   10.3461   -3.4478 H   0  0  0  0  0  0  0  0  0  0  0  0
   -4.3908   10.9375   -5.4895 H   0  0  0  0  0  0  0  0  0  0  0  0
   -5.2325    9.3243   -7.1700 H   0  0  0  0  0  0  0  0  0  0  0  0
   -6.8788    9.8814   -6.9379 H   0  0  0  0  0  0  0  0  0  0  0  0
   -5.5492   13.3659   -7.6238 H   0  0  0  0  0  0  0  0  0  0  0  0
   -7.0311   12.8155   -8.3926 H   0  0  0  0  0  0  0  0  0  0  0  0
   -7.3002   13.5282   -5.9753 H   0  0  0  0  0  0  0  0  0  0  0  0
   -7.8577   11.8812   -6.2484 H   0  0  0  0  0  0  0  0  0  0  0  0
   -3.7830    8.2958   -0.6707 H   0  0  0  0  0  0  0  0  0  0  0  0
   -2.2000    7.7640   -1.2650 H   0  0  0  0  0  0  0  0  0  0  0  0
   -3.2415   10.6447   -1.0473 H   0  0  0  0  0  0  0  0  0  0  0  0
   -1.9337    9.9414   -0.0963 H   0  0  0  0  0  0  0  0  0  0  0  0
   -0.4833    9.8062   -2.0428 H   0  0  0  0  0  0  0  0  0  0  0  0
   -1.1552   11.4290   -2.0088 H   0  0  0  0  0  0  0  0  0  0  0  0
   -2.8584   10.0061  -11.3026 H   0  0  0  0  0  0  0  0  0  0  0  0
   -5.0046    9.9236  -10.0961 H   0  0  0  0  0  0  0  0  0  0  0  0
   -3.4868   12.6398   -7.1318 H   0  0  0  0  0  0  0  0  0  0  0  0
  1  2  1  0
  2  3  1  0
  2  5  1  0
  3  4  1  0
  5  6  2  0
  5 10  1  0
  6  7  1  0
  7  8  2  0
  8  9  1  0
  9 10  2  0
 10 11  1  0
 11 12  1  0
 11 15  2  0
 12 13  1  0
 12 68  1  0
 13 14  1  0
 15 16  1  0
 15 67  1  0
 16 17  1  0
 17 18  1  0
 17 19  1  0
 17 20  1  0
 20 21  1  0
 21 22  1  0
 22 23  1  0
 22 66  2  0
 23 24  1  0
 23 65  1  0
 24 25  1  0
 25 26  1  0
 25 63  1  0
 26 27  1  0
 26 62  2  0
 27 28  1  0
 27 55  1  0
 28 29  1  0
 29 30  1  0
 29 54  2  0
 30 31  1  0
 30 34  1  0
 31 32  1  0
 31 33  1  0
 34 35  1  0
 34 53  1  0
 35 36  1  0
 35 52  2  0
 36 37  1  0
 36 51  1  0
 36 73  1  0
 37 38  1  0
 38 39  1  0
 39 40  1  0
 39 50  1  0
 40 41  1  0
 40 49  2  0
 42 43  1  0
 43 44  1  0
 43 47  1  0
 43 48  1  0
 44 45  1  0
 44 46  1  0
 50 51  1  0
 55 56  1  0
 56 57  1  0
 56 61  1  0
 57 58  1  0
 58 59  1  0
 58 71  1  0
 59 60  1  0
 60 61  1  0
 63 64  1  0
 64 65  1  0
 67 68  2  0
 67 72  1  0
 68 69  1  0
 69 70  2  0
 70 71  1  0
 71 72  2  0
 41 42  3  0
  1 74  1  0
  1 75  1  0
  1 76  1  0
  2 77  1  6
  4 78  1  0
  4 79  1  0
  4 80  1  0
  7 81  1  0
  8 82  1  0
  9 83  1  0
 13 84  1  0
 13 85  1  0
 14 86  1  0
 14 87  1  0
 14 88  1  0
 16 89  1  0
 16 90  1  0
 18 91  1  0
 18 92  1  0
 18 93  1  0
 19 94  1  0
 19 95  1  0
 19 96  1  0
 20 97  1  0
 20 98  1  0
 23 99  1  6
 24100  1  0
 27101  1  6
 28102  1  0
 30103  1  1
 31104  1  0
 32105  1  0
 32106  1  0
 32107  1  0
 33108  1  0
 33109  1  0
 33110  1  0
 37111  1  0
 37112  1  0
 38113  1  0
 38114  1  0
 45115  1  0
 45116  1  0
 45117  1  0
 46118  1  0
 46119  1  0
 46120  1  0
 47121  1  0
 47122  1  0
 47123  1  0
 48124  1  0
 48125  1  0
 48126  1  0
 50127  1  0
 50128  1  0
 51129  1  0
 51130  1  0
 53131  1  0
 53132  1  0
 53133  1  0
 55134  1  0
 55135  1  0
 56136  1  6
 57137  1  0
 57138  1  0
 59139  1  0
 59140  1  0
 60141  1  0
 60142  1  0
 63143  1  0
 63144  1  0
 64145  1  0
 64146  1  0
 65147  1  0
 65148  1  0
 69149  1  0
 70150  1  0
 72151  1  0
M  END
$$$$
