mol_bioactive_20
     RDKit          3D

151157  0  0  0  0  0  0  0  0999 V2000
    0.0889   15.1761  -12.9900 C   0  0  0  0  0  0  0  0  0  0  0  0
   -0.0196   14.6081  -11.5710 C   0  0  2  0  0  0  0  0  0  0  0  0
   -0.2478   15.6718  -10.6321 O   0  0  0  0  0  0  0  0  0  0  0  0
   -1.6098   16.0740  -10.5721 C   0  0  0  0  0  0  0  0  0  0  0  0
    1.2484   13.8540  -11.1741 C   0  0  0  0  0  0  0  0  0  0  0  0
    2.4315   14.3600  -11.6357 N   0  0  0  0  0  0  0  0  0  0  0  0
    3.5664   13.6895  -11.3541 C   0  0  0  0  0  0  0  0  0  0  0  0
    3.6033   12.5114  -10.6343 C   0  0  0  0  0  0  0  0  0  0  0  0
    2.4003   12.0001  -10.1622 C   0  0  0  0  0  0  0  0  0  0  0  0
    1.1983   12.6777  -10.4035 C   0  0  0  0  0  0  0  0  0  0  0  0
   -0.0576   12.0877   -9.9256 C   0  0  0  0  0  0  0  0  0  0  0  0
   -0.6846   11.0478  -10.5946 N   0  0  0  0  0  0  0  0  0  0  0  0
   -0.1665   10.3408  -11.7611 C   0  0  0  0  0  0  0  0  0  0  0  0
    0.3954    8.9739  -11.4116 C   0  0  0  0  0  0  0  0  0  0  0  0
   -0.8803   12.4562   -8.8592 C   0  0  0  0  0  0  0  0  0  0  0  0
   -0.6682   13.5402   -7.8223 C   0  0  0  0  0  0  0  0  0  0  0  0
    0.3706   13.3120   -6.6855 C   0  0  0  0  0  0  0  0  0  0  0  0
    0.0328   14.3022   -5.5442 C   0  0  0  0  0  0  0  0  0  0  0  0
    1.7967   13.6558   -7.1581 C   0  0  0  0  0  0  0  0  0  0  0  0
    0.3852   11.8689   -6.1342 C   0  0  0  0  0  0  0  0  0  0  0  0
   -0.7819   11.5805   -5.3517 O   0  0  0  0  0  0  0  0  0  0  0  0
   -0.8002   10.2998   -4.8709 C   0  0  0  0  0  0  0  0  0  0  0  0
   -1.9071   10.1371   -3.8250 C   0  0  1  0  0  0  0  0  0  0  0  0
   -2.4090    8.7551   -3.8532 N   0  0  0  0  0  0  0  0  0  0  0  0
   -3.3848    8.5268   -2.8624 N   0  0  0  0  0  0  0  0  0  0  0  0
   -4.7091    8.1546   -3.1146 C   0  0  0  0  0  0  0  0  0  0  0  0
   -5.2693    8.4526   -4.5214 C   0  0  1  0  0  0  0  0  0  0  0  0
   -6.3435    7.5135   -4.8415 N   0  0  0  0  0  0  0  0  0  0  0  0
   -6.0348    6.3040   -5.4375 C   0  0  0  0  0  0  0  0  0  0  0  0
   -7.2324    5.3390   -5.5960 C   0  0  2  0  0  0  0  0  0  0  0  0
   -6.8102    3.8530   -5.4456 C   0  0  0  0  0  0  0  0  0  0  0  0
   -7.9921    2.9100   -5.7088 C   0  0  0  0  0  0  0  0  0  0  0  0
   -6.2556    3.5821   -4.0397 C   0  0  0  0  0  0  0  0  0  0  0  0
   -7.8898    5.6094   -6.9030 N   0  0  0  0  0  0  0  0  0  0  0  0
   -9.1425    6.2362   -6.8893 C   0  0  0  0  0  0  0  0  0  0  0  0
   -9.8946    6.4085   -8.2325 C   0  0  0  0  0  0  0  0  0  0  0  0
  -11.0807    7.3750   -8.0758 C   0  0  0  0  0  0  0  0  0  0  0  0
  -11.9041    7.4415   -9.3578 C   0  0  0  0  0  0  0  0  0  0  0  0
  -12.2996    6.1032   -9.7803 N   0  0  0  0  0  0  0  0  0  0  0  0
  -13.6041    5.6761   -9.9843 C   0  0  0  0  0  0  0  0  0  0  0  0
  -14.6917    6.5908   -9.7225 C   0  0  0  0  0  0  0  0  0  0  0  0
  -15.6387    7.2932   -9.4828 C   0  0  0  0  0  0  0  0  0  0  0  0
  -16.8399    8.1040   -9.1707 C   0  0  0  0  0  0  0  0  0  0  0  0
  -16.5999    9.0638   -8.0569 N   0  0  0  0  0  0  0  0  0  0  0  0
  -16.2972    8.4324   -6.7693 C   0  0  0  0  0  0  0  0  0  0  0  0
  -15.5929   10.0871   -8.3462 C   0  0  0  0  0  0  0  0  0  0  0  0
  -17.9976    7.1366   -8.8173 C   0  0  0  0  0  0  0  0  0  0  0  0
  -17.2828    8.8537  -10.4497 C   0  0  0  0  0  0  0  0  0  0  0  0
  -13.8973    4.5444  -10.3565 O   0  0  0  0  0  0  0  0  0  0  0  0
  -11.2056    5.1659   -9.9843 C   0  0  0  0  0  0  0  0  0  0  0  0
  -10.3894    5.0323   -8.7053 C   0  0  0  0  0  0  0  0  0  0  0  0
   -9.6793    6.5520   -5.8245 O   0  0  0  0  0  0  0  0  0  0  0  0
   -7.0466    5.5677   -8.0985 C   0  0  0  0  0  0  0  0  0  0  0  0
   -4.9208    6.0698   -5.9065 O   0  0  0  0  0  0  0  0  0  0  0  0
   -5.7982    9.8935   -4.5293 C   0  0  0  0  0  0  0  0  0  0  0  0
   -5.3764   10.6792   -5.7726 C   0  0  1  0  0  0  0  0  0  0  0  0
   -5.8743   10.0372   -7.0932 C   0  0  0  0  0  0  0  0  0  0  0  0
   -5.7178   10.9747   -8.2228 N   0  0  0  0  0  0  0  0  0  0  0  0
   -6.2669   12.3257   -7.9649 C   0  0  0  0  0  0  0  0  0  0  0  0
   -6.7838   12.4707   -6.5253 C   0  0  0  0  0  0  0  0  0  0  0  0
   -5.8071   12.0458   -5.5703 O   0  0  0  0  0  0  0  0  0  0  0  0
   -5.4626    7.7290   -2.2299 O   0  0  0  0  0  0  0  0  0  0  0  0
   -2.8734    8.6451   -1.4977 C   0  0  0  0  0  0  0  0  0  0  0  0
   -2.3054   10.0547   -1.3055 C   0  0  0  0  0  0  0  0  0  0  0  0
   -1.3236   10.4217   -2.4284 C   0  0  0  0  0  0  0  0  0  0  0  0
   -0.0044    9.4249   -5.1913 O   0  0  0  0  0  0  0  0  0  0  0  0
   -2.1062   11.7093   -9.0099 C   0  0  0  0  0  0  0  0  0  0  0  0
   -1.9460   10.8326  -10.0789 C   0  0  0  0  0  0  0  0  0  0  0  0
   -2.9653    9.9541  -10.4789 C   0  0  0  0  0  0  0  0  0  0  0  0
   -4.1964   10.0236   -9.8198 C   0  0  0  0  0  0  0  0  0  0  0  0
   -4.4277   10.9291   -8.7835 C   0  0  0  0  0  0  0  0  0  0  0  0
   -3.3601   11.7377   -8.3514 C   0  0  0  0  0  0  0  0  0  0  0  0
   -9.0815    6.9371   -9.2006 F   0  0  0  0  0  0  0  0  0  0  0  0
    0.8048   16.0068  -13.0350 H   0  0  0  0  0  0  0  0  0  0  0  0
    0.3962   14.4072  -13.7081 H   0  0  0  0  0  0  0  0  0  0  0  0
   -0.8734   15.5790  -13.3229 H   0  0  0  0  0  0  0  0  0  0  0  0
   -0.8699   13.9143  -11.5674 H   0  0  0  0  0  0  0  0  0  0  0  0
   -1.6981   16.8551   -9.8154 H   0  0  0  0  0  0  0  0  0  0  0  0
   -1.9411   16.4862  -11.5287 H   0  0  0  0  0  0  0  0  0  0  0  0
   -2.2508   15.2352  -10.2831 H   0  0  0  0  0  0  0  0  0  0  0  0
    4.4765   14.1366  -11.7436 H   0  0  0  0  0  0  0  0  0  0  0  0
    4.5414   12.0046  -10.4428 H   0  0  0  0  0  0  0  0  0  0  0  0
    2.4003   11.0759   -9.5871 H   0  0  0  0  0  0  0  0  0  0  0  0
   -0.9846   10.2521  -12.4844 H   0  0  0  0  0  0  0  0  0  0  0  0
    0.6001   10.9551  -12.2413 H   0  0  0  0  0  0  0  0  0  0  0  0
    1.2062    9.0515  -10.6826 H   0  0  0  0  0  0  0  0  0  0  0  0
   -0.3749    8.3241  -10.9839 H   0  0  0  0  0  0  0  0  0  0  0  0
    0.7869    8.4865  -12.3084 H   0  0  0  0  0  0  0  0  0  0  0  0
   -0.4284   14.4736   -8.3440 H   0  0  0  0  0  0  0  0  0  0  0  0
   -1.6408   13.7336   -7.3533 H   0  0  0  0  0  0  0  0  0  0  0  0
    0.7205   14.1834   -4.6978 H   0  0  0  0  0  0  0  0  0  0  0  0
    0.1065   15.3410   -5.8892 H   0  0  0  0  0  0  0  0  0  0  0  0
   -0.9837   14.1526   -5.1638 H   0  0  0  0  0  0  0  0  0  0  0  0
    2.4659   13.8281   -6.3062 H   0  0  0  0  0  0  0  0  0  0  0  0
    2.2367   12.8339   -7.7217 H   0  0  0  0  0  0  0  0  0  0  0  0
    1.8183   14.5595   -7.7760 H   0  0  0  0  0  0  0  0  0  0  0  0
    0.4841   11.1415   -6.9473 H   0  0  0  0  0  0  0  0  0  0  0  0
    1.2538   11.7532   -5.4746 H   0  0  0  0  0  0  0  0  0  0  0  0
   -2.7246   10.8284   -4.0579 H   0  0  0  0  0  0  0  0  0  0  0  0
   -2.6299    8.4089   -4.7865 H   0  0  0  0  0  0  0  0  0  0  0  0
   -4.4868    8.3244   -5.2678 H   0  0  0  0  0  0  0  0  0  0  0  0
   -7.1335    7.5040   -4.2030 H   0  0  0  0  0  0  0  0  0  0  0  0
   -7.9376    5.5525   -4.7814 H   0  0  0  0  0  0  0  0  0  0  0  0
   -6.0182    3.6093   -6.1635 H   0  0  0  0  0  0  0  0  0  0  0  0
   -8.8340    3.1337   -5.0465 H   0  0  0  0  0  0  0  0  0  0  0  0
   -8.3410    2.9883   -6.7413 H   0  0  0  0  0  0  0  0  0  0  0  0
   -7.6998    1.8674   -5.5460 H   0  0  0  0  0  0  0  0  0  0  0  0
   -6.9959    3.8212   -3.2678 H   0  0  0  0  0  0  0  0  0  0  0  0
   -5.9800    2.5277   -3.9305 H   0  0  0  0  0  0  0  0  0  0  0  0
   -5.3566    4.1762   -3.8467 H   0  0  0  0  0  0  0  0  0  0  0  0
  -11.7289    7.0518   -7.2512 H   0  0  0  0  0  0  0  0  0  0  0  0
  -10.7129    8.3773   -7.8318 H   0  0  0  0  0  0  0  0  0  0  0  0
  -12.7713    8.0880   -9.2056 H   0  0  0  0  0  0  0  0  0  0  0  0
  -11.3135    7.8788  -10.1706 H   0  0  0  0  0  0  0  0  0  0  0  0
  -16.1863    9.1938   -5.9861 H   0  0  0  0  0  0  0  0  0  0  0  0
  -17.1148    7.7907   -6.4272 H   0  0  0  0  0  0  0  0  0  0  0  0
  -15.3743    7.8454   -6.7946 H   0  0  0  0  0  0  0  0  0  0  0  0
  -15.5089   10.7890   -7.5067 H   0  0  0  0  0  0  0  0  0  0  0  0
  -14.6006    9.6631   -8.5242 H   0  0  0  0  0  0  0  0  0  0  0  0
  -15.8718   10.7040   -9.2050 H   0  0  0  0  0  0  0  0  0  0  0  0
  -17.7308    6.4405   -8.0126 H   0  0  0  0  0  0  0  0  0  0  0  0
  -18.8983    7.6832   -8.5154 H   0  0  0  0  0  0  0  0  0  0  0  0
  -18.2662    6.5111   -9.6788 H   0  0  0  0  0  0  0  0  0  0  0  0
  -18.1473    9.5007  -10.2506 H   0  0  0  0  0  0  0  0  0  0  0  0
  -16.4805    9.4703  -10.8752 H   0  0  0  0  0  0  0  0  0  0  0  0
  -17.5734    8.1496  -11.2410 H   0  0  0  0  0  0  0  0  0  0  0  0
  -11.5716    4.1794  -10.2878 H   0  0  0  0  0  0  0  0  0  0  0  0
  -10.5848    5.5482  -10.8040 H   0  0  0  0  0  0  0  0  0  0  0  0
   -9.5583    4.3454   -8.8903 H   0  0  0  0  0  0  0  0  0  0  0  0
  -11.0087    4.5747   -7.9208 H   0  0  0  0  0  0  0  0  0  0  0  0
   -6.2389    4.8427   -7.9801 H   0  0  0  0  0  0  0  0  0  0  0  0
   -7.6140    5.2738   -8.9789 H   0  0  0  0  0  0  0  0  0  0  0  0
   -6.6285    6.5646   -8.2664 H   0  0  0  0  0  0  0  0  0  0  0  0
   -6.8941    9.9123   -4.4448 H   0  0  0  0  0  0  0  0  0  0  0  0
   -5.4407   10.4475   -3.6508 H   0  0  0  0  0  0  0  0  0  0  0  0
   -4.2822   10.7205   -5.7953 H   0  0  0  0  0  0  0  0  0  0  0  0
   -5.3686    9.0846   -7.2905 H   0  0  0  0  0  0  0  0  0  0  0  0
   -6.9426    9.8004   -7.0092 H   0  0  0  0  0  0  0  0  0  0  0  0
   -5.5365   13.1193   -8.1613 H   0  0  0  0  0  0  0  0  0  0  0  0
   -7.0986   12.4954   -8.6612 H   0  0  0  0  0  0  0  0  0  0  0  0
   -7.0174   13.5206   -6.3219 H   0  0  0  0  0  0  0  0  0  0  0  0
   -7.7074   11.9009   -6.3689 H   0  0  0  0  0  0  0  0  0  0  0  0
   -3.6641    8.4562   -0.7642 H   0  0  0  0  0  0  0  0  0  0  0  0
   -2.0940    7.8843   -1.3589 H   0  0  0  0  0  0  0  0  0  0  0  0
   -3.1304   10.7782   -1.3110 H   0  0  0  0  0  0  0  0  0  0  0  0
   -1.8096   10.1324   -0.3317 H   0  0  0  0  0  0  0  0  0  0  0  0
   -0.3943    9.8515   -2.2872 H   0  0  0  0  0  0  0  0  0  0  0  0
   -1.0518   11.4813   -2.3472 H   0  0  0  0  0  0  0  0  0  0  0  0
   -2.8314    9.2582  -11.3013 H   0  0  0  0  0  0  0  0  0  0  0  0
   -5.0055    9.3757  -10.1480 H   0  0  0  0  0  0  0  0  0  0  0  0
   -3.4987   12.4207   -7.5203 H   0  0  0  0  0  0  0  0  0  0  0  0
  1  2  1  0
  2  3  1  0
  2  5  1  0
  3  4  1  0
  5  6  2  0
  5 10  1  0
  6  7  1  0
  7  8  2  0
  8  9  1  0
  9 10  2  0
 10 11  1  0
 11 12  1  0
 11 15  2  0
 12 13  1  0
 12 68  1  0
 13 14  1  0
 15 16  1  0
 15 67  1  0
 16 17  1  0
 17 18  1  0
 17 19  1  0
 17 20  1  0
 20 21  1  0
 21 22  1  0
 22 23  1  0
 22 66  2  0
 23 24  1  0
 23 65  1  0
 24 25  1  0
 25 26  1  0
 25 63  1  0
 26 27  1  0
 26 62  2  0
 27 28  1  0
 27 55  1  0
 28 29  1  0
 29 30  1  0
 29 54  2  0
 30 31  1  0
 30 34  1  0
 31 32  1  0
 31 33  1  0
 34 35  1  0
 34 53  1  0
 35 36  1  0
 35 52  2  0
 36 37  1  0
 36 51  1  0
 36 73  1  0
 37 38  1  0
 38 39  1  0
 39 40  1  0
 39 50  1  0
 40 41  1  0
 40 49  2  0
 42 43  1  0
 43 44  1  0
 43 47  1  0
 43 48  1  0
 44 45  1  0
 44 46  1  0
 50 51  1  0
 55 56  1  0
 56 57  1  0
 56 61  1  0
 57 58  1  0
 58 59  1  0
 58 71  1  0
 59 60  1  0
 60 61  1  0
 63 64  1  0
 64 65  1  0
 67 68  2  0
 67 72  1  0
 68 69  1  0
 69 70  2  0
 70 71  1  0
 71 72  2  0
 41 42  3  0
  1 74  1  0
  1 75  1  0
  1 76  1  0
  2 77  1  6
  4 78  1  0
  4 79  1  0
  4 80  1  0
  7 81  1  0
  8 82  1  0
  9 83  1  0
 13 84  1  0
 13 85  1  0
 14 86  1  0
 14 87  1  0
 14 88  1  0
 16 89  1  0
 16 90  1  0
 18 91  1  0
 18 92  1  0
 18 93  1  0
 19 94  1  0
 19 95  1  0
 19 96  1  0
 20 97  1  0
 20 98  1  0
 23 99  1  6
 24100  1  0
 27101  1  6
 28102  1  0
 30103  1  1
 31104  1  0
 32105  1  0
 32106  1  0
 32107  1  0
 33108  1  0
 33109  1  0
 33110  1  0
 37111  1  0
 37112  1  0
 38113  1  0
 38114  1  0
 45115  1  0
 45116  1  0
 45117  1  0
 46118  1  0
 46119  1  0
 46120  1  0
 47121  1  0
 47122  1  0
 47123  1  0
 48124  1  0
 48125  1  0
 48126  1  0
 50127  1  0
 50128  1  0
 51129  1  0
 51130  1  0
 53131  1  0
 53132  1  0
 53133  1  0
 55134  1  0
 55135  1  0
 56136  1  6
 57137  1  0
 57138  1  0
 59139  1  0
 59140  1  0
 60141  1  0
 60142  1  0
 63143  1  0
 63144  1  0
 64145  1  0
 64146  1  0
 65147  1  0
 65148  1  0
 69149  1  0
 70150  1  0
 72151  1  0
M  END
$$$$
