mol_bioactive_8
     RDKit          3D

151157  0  0  0  0  0  0  0  0999 V2000
   -0.3762   15.0245  -12.9192 C   0  0  0  0  0  0  0  0  0  0  0  0
   -0.2239   14.8533  -11.4030 C   0  0  2  0  0  0  0  0  0  0  0  0
   -0.1078   16.1356  -10.7655 O   0  0  0  0  0  0  0  0  0  0  0  0
   -1.3531   16.7754  -10.5581 C   0  0  0  0  0  0  0  0  0  0  0  0
    1.0236   14.0270  -11.1000 C   0  0  0  0  0  0  0  0  0  0  0  0
    2.1995   14.5114  -11.6046 N   0  0  0  0  0  0  0  0  0  0  0  0
    3.3235   13.7934  -11.4088 C   0  0  0  0  0  0  0  0  0  0  0  0
    3.3539   12.5875  -10.7395 C   0  0  0  0  0  0  0  0  0  0  0  0
    2.1597   12.0923  -10.2310 C   0  0  0  0  0  0  0  0  0  0  0  0
    0.9681   12.8128  -10.3951 C   0  0  0  0  0  0  0  0  0  0  0  0
   -0.2836   12.2369   -9.8918 C   0  0  0  0  0  0  0  0  0  0  0  0
   -0.9347   11.1958  -10.5359 N   0  0  0  0  0  0  0  0  0  0  0  0
   -0.4565   10.4769  -11.7126 C   0  0  0  0  0  0  0  0  0  0  0  0
    0.1099    9.1089  -11.3685 C   0  0  0  0  0  0  0  0  0  0  0  0
   -1.0788   12.6232   -8.8125 C   0  0  0  0  0  0  0  0  0  0  0  0
   -0.8252   13.7162   -7.7978 C   0  0  0  0  0  0  0  0  0  0  0  0
    0.2203   13.4620   -6.6713 C   0  0  0  0  0  0  0  0  0  0  0  0
   -0.1530   14.3692   -5.4729 C   0  0  0  0  0  0  0  0  0  0  0  0
    1.6278   13.8934   -7.1303 C   0  0  0  0  0  0  0  0  0  0  0  0
    0.3014   11.9912   -6.2013 C   0  0  0  0  0  0  0  0  0  0  0  0
   -0.8271   11.6159   -5.3991 O   0  0  0  0  0  0  0  0  0  0  0  0
   -0.8096   10.3010   -5.0251 C   0  0  0  0  0  0  0  0  0  0  0  0
   -1.8399   10.0490   -3.9166 C   0  0  1  0  0  0  0  0  0  0  0  0
   -2.4042    8.6957   -4.0700 N   0  0  0  0  0  0  0  0  0  0  0  0
   -3.2879    8.3687   -3.0157 N   0  0  0  0  0  0  0  0  0  0  0  0
   -4.6404    8.0457   -3.1676 C   0  0  0  0  0  0  0  0  0  0  0  0
   -5.3209    8.4648   -4.4889 C   0  0  1  0  0  0  0  0  0  0  0  0
   -6.4861    7.6212   -4.7277 N   0  0  0  0  0  0  0  0  0  0  0  0
   -6.3503    6.3680   -5.2893 C   0  0  0  0  0  0  0  0  0  0  0  0
   -7.6607    5.5439   -5.2945 C   0  0  2  0  0  0  0  0  0  0  0  0
   -7.4040    4.0291   -5.0850 C   0  0  0  0  0  0  0  0  0  0  0  0
   -8.7106    3.2329   -5.1758 C   0  0  0  0  0  0  0  0  0  0  0  0
   -6.7550    3.7731   -3.7173 C   0  0  0  0  0  0  0  0  0  0  0  0
   -8.3857    5.8740   -6.5493 N   0  0  0  0  0  0  0  0  0  0  0  0
   -9.2521    6.9798   -6.4967 C   0  0  0  0  0  0  0  0  0  0  0  0
  -10.0165    7.3828   -7.7789 C   0  0  0  0  0  0  0  0  0  0  0  0
  -10.6067    8.7950   -7.6306 C   0  0  0  0  0  0  0  0  0  0  0  0
  -11.4471    9.1553   -8.8494 C   0  0  0  0  0  0  0  0  0  0  0  0
  -12.4665    8.1344   -9.0672 N   0  0  0  0  0  0  0  0  0  0  0  0
  -13.8366    8.3469   -8.9778 C   0  0  0  0  0  0  0  0  0  0  0  0
  -14.3146    9.6816   -8.6866 C   0  0  0  0  0  0  0  0  0  0  0  0
  -14.7463   10.7727   -8.4246 C   0  0  0  0  0  0  0  0  0  0  0  0
  -15.3196   12.0959   -8.0787 C   0  0  0  0  0  0  0  0  0  0  0  0
  -14.3316   12.9855   -7.4053 N   0  0  0  0  0  0  0  0  0  0  0  0
  -13.8070   12.4614   -6.1406 C   0  0  0  0  0  0  0  0  0  0  0  0
  -13.2191   13.4149   -8.2568 C   0  0  0  0  0  0  0  0  0  0  0  0
  -16.5476   11.8717   -7.1652 C   0  0  0  0  0  0  0  0  0  0  0  0
  -15.8572   12.7484   -9.3750 C   0  0  0  0  0  0  0  0  0  0  0  0
  -14.6737    7.4624   -9.1184 O   0  0  0  0  0  0  0  0  0  0  0  0
  -11.9610    6.7823   -9.2605 C   0  0  0  0  0  0  0  0  0  0  0  0
  -11.1263    6.3584   -8.0581 C   0  0  0  0  0  0  0  0  0  0  0  0
   -9.4531    7.5769   -5.4323 O   0  0  0  0  0  0  0  0  0  0  0  0
   -7.7609    5.4746   -7.8088 C   0  0  0  0  0  0  0  0  0  0  0  0
   -5.3147    5.9967   -5.8362 O   0  0  0  0  0  0  0  0  0  0  0  0
   -5.7608    9.9276   -4.3512 C   0  0  0  0  0  0  0  0  0  0  0  0
   -5.4856   10.7881   -5.5847 C   0  0  1  0  0  0  0  0  0  0  0  0
   -6.0210   10.1849   -6.9087 C   0  0  0  0  0  0  0  0  0  0  0  0
   -5.8918   11.1673   -8.0037 N   0  0  0  0  0  0  0  0  0  0  0  0
   -6.4112   12.5148   -7.6704 C   0  0  0  0  0  0  0  0  0  0  0  0
   -6.9709   12.5686   -6.2402 C   0  0  0  0  0  0  0  0  0  0  0  0
   -6.0123   12.1059   -5.2801 O   0  0  0  0  0  0  0  0  0  0  0  0
   -5.3139    7.5626   -2.2494 O   0  0  0  0  0  0  0  0  0  0  0  0
   -2.6421    8.3020   -1.7053 C   0  0  0  0  0  0  0  0  0  0  0  0
   -2.0148    9.6632   -1.3985 C   0  0  0  0  0  0  0  0  0  0  0  0
   -1.1272   10.1432   -2.5561 C   0  0  0  0  0  0  0  0  0  0  0  0
   -0.0343    9.4621   -5.4682 O   0  0  0  0  0  0  0  0  0  0  0  0
   -2.3081   11.8807   -8.9192 C   0  0  0  0  0  0  0  0  0  0  0  0
   -2.1834   10.9909   -9.9809 C   0  0  0  0  0  0  0  0  0  0  0  0
   -3.2177   10.1119  -10.3400 C   0  0  0  0  0  0  0  0  0  0  0  0
   -4.4282   10.1973   -9.6462 C   0  0  0  0  0  0  0  0  0  0  0  0
   -4.6238   11.1158   -8.6136 C   0  0  0  0  0  0  0  0  0  0  0  0
   -3.5392   11.9235   -8.2241 C   0  0  0  0  0  0  0  0  0  0  0  0
   -9.1872    7.4264   -8.8706 F   0  0  0  0  0  0  0  0  0  0  0  0
   -0.3422   14.0582  -13.4352 H   0  0  0  0  0  0  0  0  0  0  0  0
   -1.3282   15.5028  -13.1653 H   0  0  0  0  0  0  0  0  0  0  0  0
    0.4111   15.6684  -13.3275 H   0  0  0  0  0  0  0  0  0  0  0  0
   -1.1227   14.3549  -11.0291 H   0  0  0  0  0  0  0  0  0  0  0  0
   -1.9169   16.2527   -9.7780 H   0  0  0  0  0  0  0  0  0  0  0  0
   -1.1656   17.8018  -10.2200 H   0  0  0  0  0  0  0  0  0  0  0  0
   -1.9494   16.8209  -11.4761 H   0  0  0  0  0  0  0  0  0  0  0  0
    4.2254   14.2277  -11.8267 H   0  0  0  0  0  0  0  0  0  0  0  0
    4.2824   12.0443  -10.6165 H   0  0  0  0  0  0  0  0  0  0  0  0
    2.1580   11.1476   -9.6929 H   0  0  0  0  0  0  0  0  0  0  0  0
   -1.2973   10.3804  -12.4095 H   0  0  0  0  0  0  0  0  0  0  0  0
    0.2986   11.0825  -12.2230 H   0  0  0  0  0  0  0  0  0  0  0  0
    0.9472    9.1868  -10.6672 H   0  0  0  0  0  0  0  0  0  0  0  0
   -0.6477    8.4646  -10.9091 H   0  0  0  0  0  0  0  0  0  0  0  0
    0.4711    8.6095  -12.2748 H   0  0  0  0  0  0  0  0  0  0  0  0
   -0.5545   14.6335   -8.3400 H   0  0  0  0  0  0  0  0  0  0  0  0
   -1.7899   13.9588   -7.3306 H   0  0  0  0  0  0  0  0  0  0  0  0
    0.5358   14.2191   -4.6320 H   0  0  0  0  0  0  0  0  0  0  0  0
   -0.1127   15.4290   -5.7523 H   0  0  0  0  0  0  0  0  0  0  0  0
   -1.1669   14.1633   -5.1085 H   0  0  0  0  0  0  0  0  0  0  0  0
    2.3193   13.9558   -6.2832 H   0  0  0  0  0  0  0  0  0  0  0  0
    2.0575   13.1723   -7.8256 H   0  0  0  0  0  0  0  0  0  0  0  0
    1.6154   14.8773   -7.6132 H   0  0  0  0  0  0  0  0  0  0  0  0
    0.4128   11.3121   -7.0533 H   0  0  0  0  0  0  0  0  0  0  0  0
    1.1934   11.8703   -5.5713 H   0  0  0  0  0  0  0  0  0  0  0  0
   -2.6419   10.7907   -3.9956 H   0  0  0  0  0  0  0  0  0  0  0  0
   -2.7466    8.5039   -5.0105 H   0  0  0  0  0  0  0  0  0  0  0  0
   -4.6342    8.3168   -5.3227 H   0  0  0  0  0  0  0  0  0  0  0  0
   -7.2796    7.7449   -4.1033 H   0  0  0  0  0  0  0  0  0  0  0  0
   -8.2707    5.8734   -4.4432 H   0  0  0  0  0  0  0  0  0  0  0  0
   -6.7143    3.6441   -5.8456 H   0  0  0  0  0  0  0  0  0  0  0  0
   -9.4377    3.5792   -4.4312 H   0  0  0  0  0  0  0  0  0  0  0  0
   -9.1697    3.3268   -6.1643 H   0  0  0  0  0  0  0  0  0  0  0  0
   -8.5310    2.1669   -5.0011 H   0  0  0  0  0  0  0  0  0  0  0  0
   -7.3750    4.1613   -2.9039 H   0  0  0  0  0  0  0  0  0  0  0  0
   -6.6114    2.6992   -3.5497 H   0  0  0  0  0  0  0  0  0  0  0  0
   -5.7698    4.2474   -3.6487 H   0  0  0  0  0  0  0  0  0  0  0  0
  -11.2314    8.8567   -6.7312 H   0  0  0  0  0  0  0  0  0  0  0  0
   -9.7990    9.5297   -7.5217 H   0  0  0  0  0  0  0  0  0  0  0  0
  -11.8845   10.1465   -8.7173 H   0  0  0  0  0  0  0  0  0  0  0  0
  -10.8238    9.1946   -9.7492 H   0  0  0  0  0  0  0  0  0  0  0  0
  -14.6030   12.2689   -5.4153 H   0  0  0  0  0  0  0  0  0  0  0  0
  -13.2224   11.5448   -6.2759 H   0  0  0  0  0  0  0  0  0  0  0  0
  -13.1577   13.2049   -5.6644 H   0  0  0  0  0  0  0  0  0  0  0  0
  -12.5500   14.0863   -7.7039 H   0  0  0  0  0  0  0  0  0  0  0  0
  -12.6203   12.5715   -8.6208 H   0  0  0  0  0  0  0  0  0  0  0  0
  -13.5664   13.9997   -9.1149 H   0  0  0  0  0  0  0  0  0  0  0  0
  -16.3069   11.2682   -6.2822 H   0  0  0  0  0  0  0  0  0  0  0  0
  -16.9700   12.8237   -6.8281 H   0  0  0  0  0  0  0  0  0  0  0  0
  -17.3395   11.3278   -7.6955 H   0  0  0  0  0  0  0  0  0  0  0  0
  -16.2422   13.7568   -9.1811 H   0  0  0  0  0  0  0  0  0  0  0  0
  -15.0917   12.8163  -10.1582 H   0  0  0  0  0  0  0  0  0  0  0  0
  -16.6771   12.1611   -9.8037 H   0  0  0  0  0  0  0  0  0  0  0  0
  -12.7784    6.0690   -9.4125 H   0  0  0  0  0  0  0  0  0  0  0  0
  -11.3522    6.7826  -10.1732 H   0  0  0  0  0  0  0  0  0  0  0  0
  -10.7100    5.3641   -8.2526 H   0  0  0  0  0  0  0  0  0  0  0  0
  -11.7718    6.2643   -7.1756 H   0  0  0  0  0  0  0  0  0  0  0  0
   -7.2039    4.5427   -7.7014 H   0  0  0  0  0  0  0  0  0  0  0  0
   -8.5171    5.3065   -8.5775 H   0  0  0  0  0  0  0  0  0  0  0  0
   -7.0848    6.2700   -8.1398 H   0  0  0  0  0  0  0  0  0  0  0  0
   -6.8295    9.9913   -4.1055 H   0  0  0  0  0  0  0  0  0  0  0  0
   -5.2558   10.4104   -3.5013 H   0  0  0  0  0  0  0  0  0  0  0  0
   -4.3995   10.9183   -5.6693 H   0  0  0  0  0  0  0  0  0  0  0  0
   -5.5231    9.2424   -7.1611 H   0  0  0  0  0  0  0  0  0  0  0  0
   -7.0861    9.9409   -6.8019 H   0  0  0  0  0  0  0  0  0  0  0  0
   -5.6528   13.3017   -7.7721 H   0  0  0  0  0  0  0  0  0  0  0  0
   -7.2110   12.7632   -8.3801 H   0  0  0  0  0  0  0  0  0  0  0  0
   -7.2295   13.6012   -5.9797 H   0  0  0  0  0  0  0  0  0  0  0  0
   -7.8860   11.9725   -6.1435 H   0  0  0  0  0  0  0  0  0  0  0  0
   -3.3603    8.0364   -0.9229 H   0  0  0  0  0  0  0  0  0  0  0  0
   -1.8777    7.5145   -1.7448 H   0  0  0  0  0  0  0  0  0  0  0  0
   -2.8152   10.3990   -1.2383 H   0  0  0  0  0  0  0  0  0  0  0  0
   -1.4307    9.6117   -0.4730 H   0  0  0  0  0  0  0  0  0  0  0  0
   -0.2107    9.5384   -2.5680 H   0  0  0  0  0  0  0  0  0  0  0  0
   -0.8107   11.1775   -2.3703 H   0  0  0  0  0  0  0  0  0  0  0  0
   -3.1109    9.4034  -11.1534 H   0  0  0  0  0  0  0  0  0  0  0  0
   -5.2491    9.5468   -9.9409 H   0  0  0  0  0  0  0  0  0  0  0  0
   -3.6383   12.6107   -7.3903 H   0  0  0  0  0  0  0  0  0  0  0  0
  1  2  1  0
  2  3  1  0
  2  5  1  0
  3  4  1  0
  5  6  2  0
  5 10  1  0
  6  7  1  0
  7  8  2  0
  8  9  1  0
  9 10  2  0
 10 11  1  0
 11 12  1  0
 11 15  2  0
 12 13  1  0
 12 68  1  0
 13 14  1  0
 15 16  1  0
 15 67  1  0
 16 17  1  0
 17 18  1  0
 17 19  1  0
 17 20  1  0
 20 21  1  0
 21 22  1  0
 22 23  1  0
 22 66  2  0
 23 24  1  0
 23 65  1  0
 24 25  1  0
 25 26  1  0
 25 63  1  0
 26 27  1  0
 26 62  2  0
 27 28  1  0
 27 55  1  0
 28 29  1  0
 29 30  1  0
 29 54  2  0
 30 31  1  0
 30 34  1  0
 31 32  1  0
 31 33  1  0
 34 35  1  0
 34 53  1  0
 35 36  1  0
 35 52  2  0
 36 37  1  0
 36 51  1  0
 36 73  1  0
 37 38  1  0
 38 39  1  0
 39 40  1  0
 39 50  1  0
 40 41  1  0
 40 49  2  0
 42 43  1  0
 43 44  1  0
 43 47  1  0
 43 48  1  0
 44 45  1  0
 44 46  1  0
 50 51  1  0
 55 56  1  0
 56 57  1  0
 56 61  1  0
 57 58  1  0
 58 59  1  0
 58 71  1  0
 59 60  1  0
 60 61  1  0
 63 64  1  0
 64 65  1  0
 67 68  2  0
 67 72  1  0
 68 69  1  0
 69 70  2  0
 70 71  1  0
 71 72  2  0
 41 42  3  0
  1 74  1  0
  1 75  1  0
  1 76  1  0
  2 77  1  1
  4 78  1  0
  4 79  1  0
  4 80  1  0
  7 81  1  0
  8 82  1  0
  9 83  1  0
 13 84  1  0
 13 85  1  0
 14 86  1  0
 14 87  1  0
 14 88  1  0
 16 89  1  0
 16 90  1  0
 18 91  1  0
 18 92  1  0
 18 93  1  0
 19 94  1  0
 19 95  1  0
 19 96  1  0
 20 97  1  0
 20 98  1  0
 23 99  1  1
 24100  1  0
 27101  1  6
 28102  1  0
 30103  1  1
 31104  1  0
 32105  1  0
 32106  1  0
 32107  1  0
 33108  1  0
 33109  1  0
 33110  1  0
 37111  1  0
 37112  1  0
 38113  1  0
 38114  1  0
 45115  1  0
 45116  1  0
 45117  1  0
 46118  1  0
 46119  1  0
 46120  1  0
 47121  1  0
 47122  1  0
 47123  1  0
 48124  1  0
 48125  1  0
 48126  1  0
 50127  1  0
 50128  1  0
 51129  1  0
 51130  1  0
 53131  1  0
 53132  1  0
 53133  1  0
 55134  1  0
 55135  1  0
 56136  1  6
 57137  1  0
 57138  1  0
 59139  1  0
 59140  1  0
 60141  1  0
 60142  1  0
 63143  1  0
 63144  1  0
 64145  1  0
 64146  1  0
 65147  1  0
 65148  1  0
 69149  1  0
 70150  1  0
 72151  1  0
M  END
$$$$
