mol_bioactive_4
     RDKit          3D

151157  0  0  0  0  0  0  0  0999 V2000
    3.1454    1.4428   -7.3728 C   0  0  0  0  0  0  0  0  0  0  0  0
    2.7401    1.8015   -5.9400 C   0  0  2  0  0  0  0  0  0  0  0  0
    2.8980    3.2148   -5.7359 O   0  0  0  0  0  0  0  0  0  0  0  0
    1.8207    3.9837   -6.2540 C   0  0  0  0  0  0  0  0  0  0  0  0
    3.6110    1.0505   -4.9320 C   0  0  0  0  0  0  0  0  0  0  0  0
    4.9623    1.1519   -5.1231 N   0  0  0  0  0  0  0  0  0  0  0  0
    5.7825    0.5266   -4.2547 C   0  0  0  0  0  0  0  0  0  0  0  0
    5.3367   -0.2264   -3.1889 C   0  0  0  0  0  0  0  0  0  0  0  0
    3.9649   -0.3415   -3.0005 C   0  0  0  0  0  0  0  0  0  0  0  0
    3.0689    0.3017   -3.8680 C   0  0  0  0  0  0  0  0  0  0  0  0
    1.6293    0.1314   -3.6144 C   0  0  0  0  0  0  0  0  0  0  0  0
    0.8114   -0.6858   -4.3864 N   0  0  0  0  0  0  0  0  0  0  0  0
    1.2410   -1.5327   -5.4918 C   0  0  0  0  0  0  0  0  0  0  0  0
    1.5073   -2.9602   -5.0456 C   0  0  0  0  0  0  0  0  0  0  0  0
    0.8610    0.5791   -2.5357 C   0  0  0  0  0  0  0  0  0  0  0  0
    1.3045    1.3490   -1.3058 C   0  0  0  0  0  0  0  0  0  0  0  0
    1.2911    2.9008   -1.3607 C   0  0  0  0  0  0  0  0  0  0  0  0
    1.8375    3.4230   -0.0126 C   0  0  0  0  0  0  0  0  0  0  0  0
    2.2312    3.4049   -2.4675 C   0  0  0  0  0  0  0  0  0  0  0  0
   -0.1157    3.5022   -1.6149 C   0  0  0  0  0  0  0  0  0  0  0  0
   -0.9650    3.4353   -0.4466 O   0  0  0  0  0  0  0  0  0  0  0  0
   -1.6545    4.5860   -0.1610 C   0  0  0  0  0  0  0  0  0  0  0  0
   -2.5589    4.4466    1.0737 C   0  0  1  0  0  0  0  0  0  0  0  0
   -2.0214    3.4766    2.0453 N   0  0  0  0  0  0  0  0  0  0  0  0
   -2.8726    3.3544    3.1782 N   0  0  0  0  0  0  0  0  0  0  0  0
   -3.6073    2.2152    3.5381 C   0  0  0  0  0  0  0  0  0  0  0  0
   -3.7666    1.1102    2.4772 C   0  0  1  0  0  0  0  0  0  0  0  0
   -3.8072   -0.2118    3.0835 N   0  0  0  0  0  0  0  0  0  0  0  0
   -2.6835   -1.0103    3.1550 C   0  0  0  0  0  0  0  0  0  0  0  0
   -2.9171   -2.4035    3.7980 C   0  0  2  0  0  0  0  0  0  0  0  0
   -2.6268   -2.4017    5.3240 C   0  0  0  0  0  0  0  0  0  0  0  0
   -3.3889   -1.2996    6.0713 C   0  0  0  0  0  0  0  0  0  0  0  0
   -3.0100   -3.7527    5.9485 C   0  0  0  0  0  0  0  0  0  0  0  0
   -2.1535   -3.4170    3.0119 N   0  0  0  0  0  0  0  0  0  0  0  0
   -2.7803   -3.9087    1.8627 C   0  0  0  0  0  0  0  0  0  0  0  0
   -2.0311   -4.8841    0.9213 C   0  0  0  0  0  0  0  0  0  0  0  0
   -3.0380   -5.5866    0.0029 C   0  0  0  0  0  0  0  0  0  0  0  0
   -2.3423   -6.5543   -0.9387 C   0  0  0  0  0  0  0  0  0  0  0  0
   -1.2166   -5.9596   -1.6486 N   0  0  0  0  0  0  0  0  0  0  0  0
   -0.7996   -6.6482   -2.7928 C   0  0  0  0  0  0  0  0  0  0  0  0
    0.5947   -6.5863   -3.1814 C   0  0  0  0  0  0  0  0  0  0  0  0
    1.7576   -6.6767   -3.4744 C   0  0  0  0  0  0  0  0  0  0  0  0
    3.1878   -6.9349   -3.8001 C   0  0  0  0  0  0  0  0  0  0  0  0
    3.2839   -7.5674   -5.1422 N   0  0  0  0  0  0  0  0  0  0  0  0
    2.5636   -8.8438   -5.2586 C   0  0  0  0  0  0  0  0  0  0  0  0
    4.6509   -7.7455   -5.6385 C   0  0  0  0  0  0  0  0  0  0  0  0
    3.9037   -5.5639   -3.7933 C   0  0  0  0  0  0  0  0  0  0  0  0
    3.7878   -7.7897   -2.6611 C   0  0  0  0  0  0  0  0  0  0  0  0
   -1.5428   -7.3610   -3.4609 O   0  0  0  0  0  0  0  0  0  0  0  0
   -0.2870   -5.1567   -0.8607 C   0  0  0  0  0  0  0  0  0  0  0  0
   -1.0037   -4.1611    0.0479 C   0  0  0  0  0  0  0  0  0  0  0  0
   -3.9330   -3.5578    1.5823 O   0  0  0  0  0  0  0  0  0  0  0  0
   -0.7324   -3.5955    3.3091 C   0  0  0  0  0  0  0  0  0  0  0  0
   -1.5894   -0.6324    2.7355 O   0  0  0  0  0  0  0  0  0  0  0  0
   -5.0473    1.3949    1.6626 C   0  0  0  0  0  0  0  0  0  0  0  0
   -5.2238    0.5395    0.3946 C   0  0  1  0  0  0  0  0  0  0  0  0
   -3.9189    0.4519   -0.4070 C   0  0  0  0  0  0  0  0  0  0  0  0
   -4.0475   -0.3839   -1.6148 N   0  0  0  0  0  0  0  0  0  0  0  0
   -4.6140   -1.7190   -1.2708 C   0  0  0  0  0  0  0  0  0  0  0  0
   -5.8886   -1.5703   -0.4150 C   0  0  0  0  0  0  0  0  0  0  0  0
   -5.6812   -0.7700    0.7629 O   0  0  0  0  0  0  0  0  0  0  0  0
   -4.2051    2.1291    4.6163 O   0  0  0  0  0  0  0  0  0  0  0  0
   -2.9544    4.5772    3.9796 C   0  0  0  0  0  0  0  0  0  0  0  0
   -3.4883    5.7061    3.0949 C   0  0  0  0  0  0  0  0  0  0  0  0
   -2.6935    5.8096    1.7848 C   0  0  0  0  0  0  0  0  0  0  0  0
   -1.6220    5.6026   -0.8468 O   0  0  0  0  0  0  0  0  0  0  0  0
   -0.4644    0.0740   -2.7374 C   0  0  0  0  0  0  0  0  0  0  0  0
   -0.4811   -0.6810   -3.9005 C   0  0  0  0  0  0  0  0  0  0  0  0
   -1.6528   -1.3083   -4.3525 C   0  0  0  0  0  0  0  0  0  0  0  0
   -2.8210   -1.1782   -3.5829 C   0  0  0  0  0  0  0  0  0  0  0  0
   -2.8504   -0.4690   -2.3785 C   0  0  0  0  0  0  0  0  0  0  0  0
   -1.6552    0.1684   -1.9881 C   0  0  0  0  0  0  0  0  0  0  0  0
   -1.3915   -5.8620    1.6384 F   0  0  0  0  0  0  0  0  0  0  0  0
    3.1609    0.3614   -7.5334 H   0  0  0  0  0  0  0  0  0  0  0  0
    2.4471    1.8773   -8.0958 H   0  0  0  0  0  0  0  0  0  0  0  0
    4.1355    1.8447   -7.6194 H   0  0  0  0  0  0  0  0  0  0  0  0
    1.6878    1.5366   -5.8019 H   0  0  0  0  0  0  0  0  0  0  0  0
    0.8722    3.6727   -5.8053 H   0  0  0  0  0  0  0  0  0  0  0  0
    1.9961    5.0318   -5.9971 H   0  0  0  0  0  0  0  0  0  0  0  0
    1.7682    3.9031   -7.3426 H   0  0  0  0  0  0  0  0  0  0  0  0
    6.8430    0.6558   -4.4488 H   0  0  0  0  0  0  0  0  0  0  0  0
    6.0375   -0.7106   -2.5202 H   0  0  0  0  0  0  0  0  0  0  0  0
    3.5908   -0.9360   -2.1703 H   0  0  0  0  0  0  0  0  0  0  0  0
    0.4634   -1.5005   -6.2623 H   0  0  0  0  0  0  0  0  0  0  0  0
    2.1424   -1.1114   -5.9380 H   0  0  0  0  0  0  0  0  0  0  0  0
    2.2832   -2.9875   -4.2753 H   0  0  0  0  0  0  0  0  0  0  0  0
    0.6089   -3.4269   -4.6293 H   0  0  0  0  0  0  0  0  0  0  0  0
    1.8415   -3.5662   -5.8925 H   0  0  0  0  0  0  0  0  0  0  0  0
    0.6857    1.0239   -0.4578 H   0  0  0  0  0  0  0  0  0  0  0  0
    2.3179    1.0133   -1.0467 H   0  0  0  0  0  0  0  0  0  0  0  0
    1.2476    3.0524    0.8324 H   0  0  0  0  0  0  0  0  0  0  0  0
    2.8730    3.0999    0.1446 H   0  0  0  0  0  0  0  0  0  0  0  0
    1.8237    4.5177    0.0231 H   0  0  0  0  0  0  0  0  0  0  0  0
    2.3722    4.4910   -2.4093 H   0  0  0  0  0  0  0  0  0  0  0  0
    3.2232    2.9470   -2.3944 H   0  0  0  0  0  0  0  0  0  0  0  0
    1.8125    3.1857   -3.4506 H   0  0  0  0  0  0  0  0  0  0  0  0
    0.0131    4.5397   -1.9459 H   0  0  0  0  0  0  0  0  0  0  0  0
   -0.6292    2.9832   -2.4295 H   0  0  0  0  0  0  0  0  0  0  0  0
   -3.5350    4.1090    0.7086 H   0  0  0  0  0  0  0  0  0  0  0  0
   -1.7376    2.5972    1.6143 H   0  0  0  0  0  0  0  0  0  0  0  0
   -2.8936    1.1397    1.8347 H   0  0  0  0  0  0  0  0  0  0  0  0
   -4.6694   -0.5052    3.5269 H   0  0  0  0  0  0  0  0  0  0  0  0
   -3.9853   -2.6324    3.6794 H   0  0  0  0  0  0  0  0  0  0  0  0
   -1.5603   -2.2226    5.5022 H   0  0  0  0  0  0  0  0  0  0  0  0
   -3.2098   -1.3684    7.1495 H   0  0  0  0  0  0  0  0  0  0  0  0
   -3.0634   -0.3036    5.7597 H   0  0  0  0  0  0  0  0  0  0  0  0
   -4.4672   -1.3818    5.9049 H   0  0  0  0  0  0  0  0  0  0  0  0
   -2.7652   -3.7687    7.0169 H   0  0  0  0  0  0  0  0  0  0  0  0
   -4.0850   -3.9396    5.8474 H   0  0  0  0  0  0  0  0  0  0  0  0
   -2.4811   -4.5885    5.4796 H   0  0  0  0  0  0  0  0  0  0  0  0
   -3.7723   -6.1413    0.6005 H   0  0  0  0  0  0  0  0  0  0  0  0
   -3.5943   -4.8490   -0.5904 H   0  0  0  0  0  0  0  0  0  0  0  0
   -1.9500   -7.4112   -0.3760 H   0  0  0  0  0  0  0  0  0  0  0  0
   -3.0720   -6.9538   -1.6523 H   0  0  0  0  0  0  0  0  0  0  0  0
    1.5000   -8.7410   -5.0250 H   0  0  0  0  0  0  0  0  0  0  0  0
    2.6018   -9.2060   -6.2931 H   0  0  0  0  0  0  0  0  0  0  0  0
    2.9890   -9.6244   -4.6196 H   0  0  0  0  0  0  0  0  0  0  0  0
    5.2352   -8.4354   -5.0210 H   0  0  0  0  0  0  0  0  0  0  0  0
    4.6358   -8.1442   -6.6600 H   0  0  0  0  0  0  0  0  0  0  0  0
    5.1871   -6.7946   -5.7086 H   0  0  0  0  0  0  0  0  0  0  0  0
    3.6416   -4.9814   -2.9019 H   0  0  0  0  0  0  0  0  0  0  0  0
    4.9935   -5.6686   -3.7981 H   0  0  0  0  0  0  0  0  0  0  0  0
    3.6204   -4.9659   -4.6654 H   0  0  0  0  0  0  0  0  0  0  0  0
    3.6802   -7.2813   -1.6954 H   0  0  0  0  0  0  0  0  0  0  0  0
    3.2844   -8.7566   -2.5588 H   0  0  0  0  0  0  0  0  0  0  0  0
    4.8557   -7.9750   -2.8088 H   0  0  0  0  0  0  0  0  0  0  0  0
    0.3311   -5.8441   -0.2697 H   0  0  0  0  0  0  0  0  0  0  0  0
    0.3804   -4.6071   -1.5327 H   0  0  0  0  0  0  0  0  0  0  0  0
   -1.5058   -3.3976   -0.5604 H   0  0  0  0  0  0  0  0  0  0  0  0
   -0.2546   -3.6346    0.6447 H   0  0  0  0  0  0  0  0  0  0  0  0
   -0.5992   -3.8957    4.3500 H   0  0  0  0  0  0  0  0  0  0  0  0
   -0.2625   -4.3661    2.7029 H   0  0  0  0  0  0  0  0  0  0  0  0
   -0.2029   -2.6563    3.1312 H   0  0  0  0  0  0  0  0  0  0  0  0
   -5.9246    1.2585    2.3106 H   0  0  0  0  0  0  0  0  0  0  0  0
   -5.0458    2.4483    1.3590 H   0  0  0  0  0  0  0  0  0  0  0  0
   -6.0097    1.0015   -0.2194 H   0  0  0  0  0  0  0  0  0  0  0  0
   -3.6178    1.4729   -0.6750 H   0  0  0  0  0  0  0  0  0  0  0  0
   -3.1529   -0.0190    0.2184 H   0  0  0  0  0  0  0  0  0  0  0  0
   -4.8729   -2.2896   -2.1682 H   0  0  0  0  0  0  0  0  0  0  0  0
   -3.8671   -2.2838   -0.7035 H   0  0  0  0  0  0  0  0  0  0  0  0
   -6.6987   -1.1233   -1.0046 H   0  0  0  0  0  0  0  0  0  0  0  0
   -6.2283   -2.5578   -0.0859 H   0  0  0  0  0  0  0  0  0  0  0  0
   -3.6089    4.4407    4.8453 H   0  0  0  0  0  0  0  0  0  0  0  0
   -1.9482    4.8111    4.3473 H   0  0  0  0  0  0  0  0  0  0  0  0
   -4.5397    5.5083    2.8520 H   0  0  0  0  0  0  0  0  0  0  0  0
   -3.4525    6.6586    3.6337 H   0  0  0  0  0  0  0  0  0  0  0  0
   -1.6969    6.2170    2.0021 H   0  0  0  0  0  0  0  0  0  0  0  0
   -3.1853    6.5325    1.1232 H   0  0  0  0  0  0  0  0  0  0  0  0
   -1.6725   -1.8898   -5.2686 H   0  0  0  0  0  0  0  0  0  0  0  0
   -3.7281   -1.6455   -3.9584 H   0  0  0  0  0  0  0  0  0  0  0  0
   -1.5881    0.7432   -1.0745 H   0  0  0  0  0  0  0  0  0  0  0  0
  1  2  1  0
  2  3  1  0
  2  5  1  0
  3  4  1  0
  5  6  2  0
  5 10  1  0
  6  7  1  0
  7  8  2  0
  8  9  1  0
  9 10  2  0
 10 11  1  0
 11 12  1  0
 11 15  2  0
 12 13  1  0
 12 68  1  0
 13 14  1  0
 15 16  1  0
 15 67  1  0
 16 17  1  0
 17 18  1  0
 17 19  1  0
 17 20  1  0
 20 21  1  0
 21 22  1  0
 22 23  1  0
 22 66  2  0
 23 24  1  0
 23 65  1  0
 24 25  1  0
 25 26  1  0
 25 63  1  0
 26 27  1  0
 26 62  2  0
 27 28  1  0
 27 55  1  0
 28 29  1  0
 29 30  1  0
 29 54  2  0
 30 31  1  0
 30 34  1  0
 31 32  1  0
 31 33  1  0
 34 35  1  0
 34 53  1  0
 35 36  1  0
 35 52  2  0
 36 37  1  0
 36 51  1  0
 36 73  1  0
 37 38  1  0
 38 39  1  0
 39 40  1  0
 39 50  1  0
 40 41  1  0
 40 49  2  0
 42 43  1  0
 43 44  1  0
 43 47  1  0
 43 48  1  0
 44 45  1  0
 44 46  1  0
 50 51  1  0
 55 56  1  0
 56 57  1  0
 56 61  1  0
 57 58  1  0
 58 59  1  0
 58 71  1  0
 59 60  1  0
 60 61  1  0
 63 64  1  0
 64 65  1  0
 67 68  2  0
 67 72  1  0
 68 69  1  0
 69 70  2  0
 70 71  1  0
 71 72  2  0
 41 42  3  0
  1 74  1  0
  1 75  1  0
  1 76  1  0
  2 77  1  1
  4 78  1  0
  4 79  1  0
  4 80  1  0
  7 81  1  0
  8 82  1  0
  9 83  1  0
 13 84  1  0
 13 85  1  0
 14 86  1  0
 14 87  1  0
 14 88  1  0
 16 89  1  0
 16 90  1  0
 18 91  1  0
 18 92  1  0
 18 93  1  0
 19 94  1  0
 19 95  1  0
 19 96  1  0
 20 97  1  0
 20 98  1  0
 23 99  1  6
 24100  1  0
 27101  1  6
 28102  1  0
 30103  1  1
 31104  1  0
 32105  1  0
 32106  1  0
 32107  1  0
 33108  1  0
 33109  1  0
 33110  1  0
 37111  1  0
 37112  1  0
 38113  1  0
 38114  1  0
 45115  1  0
 45116  1  0
 45117  1  0
 46118  1  0
 46119  1  0
 46120  1  0
 47121  1  0
 47122  1  0
 47123  1  0
 48124  1  0
 48125  1  0
 48126  1  0
 50127  1  0
 50128  1  0
 51129  1  0
 51130  1  0
 53131  1  0
 53132  1  0
 53133  1  0
 55134  1  0
 55135  1  0
 56136  1  6
 57137  1  0
 57138  1  0
 59139  1  0
 59140  1  0
 60141  1  0
 60142  1  0
 63143  1  0
 63144  1  0
 64145  1  0
 64146  1  0
 65147  1  0
 65148  1  0
 69149  1  0
 70150  1  0
 72151  1  0
M  END
$$$$
