 energy: -221.288047599791 gnorm: 0.000834669673 xtb: 6.7.1 (edcfbbe)
          08232520203D

151157  0     0  0            999 V2000
    3.6701    1.7363   -5.5063 C   0  0  0  0  0  0  0  0  0  0  0  0
    2.7502    0.5300   -5.2852 C   0  0  0  0  0  0  0  0  0  0  0  0
    1.4447    0.9101   -4.9032 O   0  0  0  0  0  0  0  0  0  0  0  0
    0.6600    1.4710   -5.9219 C   0  0  0  0  0  0  0  0  0  0  0  0
    3.3417   -0.3834   -4.2246 C   0  0  0  0  0  0  0  0  0  0  0  0
    4.6544   -0.5401   -4.3265 N   0  0  0  0  0  0  0  0  0  0  0  0
    5.3071   -1.2596   -3.4353 C   0  0  0  0  0  0  0  0  0  0  0  0
    4.6828   -1.8707   -2.3602 C   0  0  0  0  0  0  0  0  0  0  0  0
    3.3090   -1.7539   -2.2694 C   0  0  0  0  0  0  0  0  0  0  0  0
    2.5968   -1.0153   -3.2159 C   0  0  0  0  0  0  0  0  0  0  0  0
    1.1406   -0.9447   -3.0752 C   0  0  0  0  0  0  0  0  0  0  0  0
    0.2879   -1.4677   -4.0228 N   0  0  0  0  0  0  0  0  0  0  0  0
    0.6612   -2.2213   -5.1896 C   0  0  0  0  0  0  0  0  0  0  0  0
    0.4040   -3.7139   -4.9953 C   0  0  0  0  0  0  0  0  0  0  0  0
    0.4199   -0.4286   -2.0206 C   0  0  0  0  0  0  0  0  0  0  0  0
    0.8998    0.2135   -0.7556 C   0  0  0  0  0  0  0  0  0  0  0  0
    1.1882    1.7311   -0.8328 C   0  0  0  0  0  0  0  0  0  0  0  0
    1.6521    2.2050    0.5469 C   0  0  0  0  0  0  0  0  0  0  0  0
    2.2842    2.0018   -1.8637 C   0  0  0  0  0  0  0  0  0  0  0  0
   -0.0612    2.5207   -1.2737 C   0  0  0  0  0  0  0  0  0  0  0  0
   -0.9535    2.8660   -0.2066 O   0  0  0  0  0  0  0  0  0  0  0  0
   -0.8827    4.1081    0.2630 C   0  0  0  0  0  0  0  0  0  0  0  0
   -1.9566    4.3651    1.3163 C   0  0  0  0  0  0  0  0  0  0  0  0
   -1.8975    3.3913    2.3983 N   0  0  0  0  0  0  0  0  0  0  0  0
   -3.0167    3.5298    3.2283 N   0  0  0  0  0  0  0  0  0  0  0  0
   -4.1970    2.8860    3.0996 C   0  0  0  0  0  0  0  0  0  0  0  0
   -4.2623    1.8206    1.9876 C   0  0  0  0  0  0  0  0  0  0  0  0
   -4.0165    0.5010    2.5374 N   0  0  0  0  0  0  0  0  0  0  0  0
   -2.7988   -0.0589    2.5202 C   0  0  0  0  0  0  0  0  0  0  0  0
   -2.7456   -1.5000    3.0247 C   0  0  0  0  0  0  0  0  0  0  0  0
   -2.6638   -1.5857    4.5656 C   0  0  0  0  0  0  0  0  0  0  0  0
   -3.8265   -0.8568    5.2358 C   0  0  0  0  0  0  0  0  0  0  0  0
   -2.6689   -3.0542    4.9904 C   0  0  0  0  0  0  0  0  0  0  0  0
   -1.6369   -2.2132    2.3987 N   0  0  0  0  0  0  0  0  0  0  0  0
   -1.9486   -3.1511    1.4858 C   0  0  0  0  0  0  0  0  0  0  0  0
   -0.8613   -4.1302    1.0098 C   0  0  0  0  0  0  0  0  0  0  0  0
   -1.5055   -5.4904    0.7240 C   0  0  0  0  0  0  0  0  0  0  0  0
   -0.4359   -6.4872    0.2939 C   0  0  0  0  0  0  0  0  0  0  0  0
    0.3260   -5.9927   -0.8317 N   0  0  0  0  0  0  0  0  0  0  0  0
    0.6035   -6.8322   -1.8589 C   0  0  0  0  0  0  0  0  0  0  0  0
    1.5689   -6.3566   -2.8234 C   0  0  0  0  0  0  0  0  0  0  0  0
    2.3848   -6.2070   -3.6964 C   0  0  0  0  0  0  0  0  0  0  0  0
    3.4170   -5.9651   -4.7034 C   0  0  0  0  0  0  0  0  0  0  0  0
    2.7520   -5.8578   -6.0076 N   0  0  0  0  0  0  0  0  0  0  0  0
    1.9659   -7.0243   -6.3609 C   0  0  0  0  0  0  0  0  0  0  0  0
    3.6044   -5.4655   -7.1087 C   0  0  0  0  0  0  0  0  0  0  0  0
    4.1095   -4.6410   -4.3439 C   0  0  0  0  0  0  0  0  0  0  0  0
    4.4346   -7.1207   -4.5962 C   0  0  0  0  0  0  0  0  0  0  0  0
    0.1037   -7.9366   -1.9755 O   0  0  0  0  0  0  0  0  0  0  0  0
    0.9244   -4.6940   -0.6521 C   0  0  0  0  0  0  0  0  0  0  0  0
   -0.1325   -3.6575   -0.2518 C   0  0  0  0  0  0  0  0  0  0  0  0
   -3.0843   -3.2889    1.0548 O   0  0  0  0  0  0  0  0  0  0  0  0
   -0.2953   -1.8406    2.7974 C   0  0  0  0  0  0  0  0  0  0  0  0
   -1.8107    0.5396    2.1172 O   0  0  0  0  0  0  0  0  0  0  0  0
   -5.6252    1.8602    1.2949 C   0  0  0  0  0  0  0  0  0  0  0  0
   -5.7805    0.8049    0.1880 C   0  0  0  0  0  0  0  0  0  0  0  0
   -4.4561    0.5291   -0.5220 C   0  0  0  0  0  0  0  0  0  0  0  0
   -4.5830   -0.4836   -1.5531 N   0  0  0  0  0  0  0  0  0  0  0  0
   -5.1661   -1.6983   -0.9828 C   0  0  0  0  0  0  0  0  0  0  0  0
   -6.4625   -1.3622   -0.2479 C   0  0  0  0  0  0  0  0  0  0  0  0
   -6.2632   -0.3970    0.7625 O   0  0  0  0  0  0  0  0  0  0  0  0
   -5.1369    3.0890    3.8467 O   0  0  0  0  0  0  0  0  0  0  0  0
   -2.9222    4.7616    3.9896 C   0  0  0  0  0  0  0  0  0  0  0  0
   -2.9069    5.9399    3.0099 C   0  0  0  0  0  0  0  0  0  0  0  0
   -1.8086    5.7453    1.9634 C   0  0  0  0  0  0  0  0  0  0  0  0
   -0.1256    4.9550   -0.1323 O   0  0  0  0  0  0  0  0  0  0  0  0
   -0.9516   -0.6440   -2.3427 C   0  0  0  0  0  0  0  0  0  0  0  0
   -0.9972   -1.3024   -3.5898 C   0  0  0  0  0  0  0  0  0  0  0  0
   -2.2187   -1.6628   -4.1521 C   0  0  0  0  0  0  0  0  0  0  0  0
   -3.3682   -1.3798   -3.4488 C   0  0  0  0  0  0  0  0  0  0  0  0
   -3.3394   -0.7387   -2.1981 C   0  0  0  0  0  0  0  0  0  0  0  0
   -2.1263   -0.3614   -1.6525 C   0  0  0  0  0  0  0  0  0  0  0  0
    0.0732   -4.3260    2.0278 F   0  0  0  0  0  0  0  0  0  0  0  0
    4.6800    1.3814   -5.6818 H   0  0  0  0  0  0  0  0  0  0  0  0
    3.3392    2.3184   -6.3623 H   0  0  0  0  0  0  0  0  0  0  0  0
    3.6623    2.3665   -4.6208 H   0  0  0  0  0  0  0  0  0  0  0  0
    2.7003   -0.0399   -6.2325 H   0  0  0  0  0  0  0  0  0  0  0  0
    0.6755    0.8476   -6.8248 H   0  0  0  0  0  0  0  0  0  0  0  0
   -0.3557    1.5146   -5.5306 H   0  0  0  0  0  0  0  0  0  0  0  0
    0.9878    2.4822   -6.1856 H   0  0  0  0  0  0  0  0  0  0  0  0
    6.3749   -1.3358   -3.5909 H   0  0  0  0  0  0  0  0  0  0  0  0
    5.2485   -2.4283   -1.6303 H   0  0  0  0  0  0  0  0  0  0  0  0
    2.7681   -2.2448   -1.4727 H   0  0  0  0  0  0  0  0  0  0  0  0
    0.0912   -1.8498   -6.0479 H   0  0  0  0  0  0  0  0  0  0  0  0
    1.7227   -2.0566   -5.3829 H   0  0  0  0  0  0  0  0  0  0  0  0
    0.9006   -4.0643   -4.0947 H   0  0  0  0  0  0  0  0  0  0  0  0
   -0.6589   -3.9149   -4.8977 H   0  0  0  0  0  0  0  0  0  0  0  0
    0.7993   -4.2796   -5.8334 H   0  0  0  0  0  0  0  0  0  0  0  0
    0.1394    0.0605    0.0141 H   0  0  0  0  0  0  0  0  0  0  0  0
    1.8226   -0.2692   -0.4231 H   0  0  0  0  0  0  0  0  0  0  0  0
    0.9103    1.9673    1.3068 H   0  0  0  0  0  0  0  0  0  0  0  0
    2.5877    1.7177    0.8128 H   0  0  0  0  0  0  0  0  0  0  0  0
    1.8144    3.2804    0.5442 H   0  0  0  0  0  0  0  0  0  0  0  0
    2.5606    3.0539   -1.8527 H   0  0  0  0  0  0  0  0  0  0  0  0
    3.1704    1.4124   -1.6376 H   0  0  0  0  0  0  0  0  0  0  0  0
    1.9337    1.7371   -2.8568 H   0  0  0  0  0  0  0  0  0  0  0  0
    0.2535    3.4535   -1.7512 H   0  0  0  0  0  0  0  0  0  0  0  0
   -0.6484    1.9298   -1.9790 H   0  0  0  0  0  0  0  0  0  0  0  0
   -2.9243    4.3179    0.7767 H   0  0  0  0  0  0  0  0  0  0  0  0
   -1.7522    2.4262    2.1003 H   0  0  0  0  0  0  0  0  0  0  0  0
   -3.4773    2.0249    1.2547 H   0  0  0  0  0  0  0  0  0  0  0  0
   -4.8355   -0.0413    2.7676 H   0  0  0  0  0  0  0  0  0  0  0  0
   -3.6570   -2.0105    2.6915 H   0  0  0  0  0  0  0  0  0  0  0  0
   -1.7306   -1.1186    4.8943 H   0  0  0  0  0  0  0  0  0  0  0  0
   -3.7642   -0.9946    6.3129 H   0  0  0  0  0  0  0  0  0  0  0  0
   -3.8054    0.2112    5.0357 H   0  0  0  0  0  0  0  0  0  0  0  0
   -4.7800   -1.2608    4.9015 H   0  0  0  0  0  0  0  0  0  0  0  0
   -2.5758   -3.1301    6.0710 H   0  0  0  0  0  0  0  0  0  0  0  0
   -3.6018   -3.5279    4.6916 H   0  0  0  0  0  0  0  0  0  0  0  0
   -1.8486   -3.6053    4.5386 H   0  0  0  0  0  0  0  0  0  0  0  0
   -2.0014   -5.8551    1.6245 H   0  0  0  0  0  0  0  0  0  0  0  0
   -2.2577   -5.3559   -0.0519 H   0  0  0  0  0  0  0  0  0  0  0  0
    0.2462   -6.6687    1.1354 H   0  0  0  0  0  0  0  0  0  0  0  0
   -0.8874   -7.4347   -0.0050 H   0  0  0  0  0  0  0  0  0  0  0  0
    1.3628   -7.3321   -5.5094 H   0  0  0  0  0  0  0  0  0  0  0  0
    1.2974   -6.7529   -7.1790 H   0  0  0  0  0  0  0  0  0  0  0  0
    2.5789   -7.8754   -6.6914 H   0  0  0  0  0  0  0  0  0  0  0  0
    4.3659   -6.2174   -7.3658 H   0  0  0  0  0  0  0  0  0  0  0  0
    2.9718   -5.3202   -7.9848 H   0  0  0  0  0  0  0  0  0  0  0  0
    4.0971   -4.5216   -6.8901 H   0  0  0  0  0  0  0  0  0  0  0  0
    4.3343   -4.6276   -3.2799 H   0  0  0  0  0  0  0  0  0  0  0  0
    5.0429   -4.5248   -4.8878 H   0  0  0  0  0  0  0  0  0  0  0  0
    3.4572   -3.8021   -4.5704 H   0  0  0  0  0  0  0  0  0  0  0  0
    4.8887   -7.1170   -3.6086 H   0  0  0  0  0  0  0  0  0  0  0  0
    3.9443   -8.0796   -4.7433 H   0  0  0  0  0  0  0  0  0  0  0  0
    5.2190   -7.0010   -5.3400 H   0  0  0  0  0  0  0  0  0  0  0  0
    1.6849   -4.7466    0.1407 H   0  0  0  0  0  0  0  0  0  0  0  0
    1.4096   -4.3954   -1.5841 H   0  0  0  0  0  0  0  0  0  0  0  0
   -0.8712   -3.5341   -1.0446 H   0  0  0  0  0  0  0  0  0  0  0  0
    0.3496   -2.6928   -0.0899 H   0  0  0  0  0  0  0  0  0  0  0  0
    0.0455   -2.4184    3.6592 H   0  0  0  0  0  0  0  0  0  0  0  0
    0.4022   -1.9926    1.9790 H   0  0  0  0  0  0  0  0  0  0  0  0
   -0.2930   -0.7814    3.0428 H   0  0  0  0  0  0  0  0  0  0  0  0
   -6.4074    1.7034    2.0397 H   0  0  0  0  0  0  0  0  0  0  0  0
   -5.7627    2.8540    0.8669 H   0  0  0  0  0  0  0  0  0  0  0  0
   -6.5223    1.1588   -0.5480 H   0  0  0  0  0  0  0  0  0  0  0  0
   -4.0811    1.4445   -0.9870 H   0  0  0  0  0  0  0  0  0  0  0  0
   -3.7518    0.1768    0.2386 H   0  0  0  0  0  0  0  0  0  0  0  0
   -5.3774   -2.4012   -1.7897 H   0  0  0  0  0  0  0  0  0  0  0  0
   -4.4693   -2.1743   -0.2757 H   0  0  0  0  0  0  0  0  0  0  0  0
   -7.2097   -0.9885   -0.9645 H   0  0  0  0  0  0  0  0  0  0  0  0
   -6.8508   -2.2511    0.2517 H   0  0  0  0  0  0  0  0  0  0  0  0
   -3.7793    4.8124    4.6608 H   0  0  0  0  0  0  0  0  0  0  0  0
   -1.9941    4.7317    4.5644 H   0  0  0  0  0  0  0  0  0  0  0  0
   -3.8795    5.9982    2.5152 H   0  0  0  0  0  0  0  0  0  0  0  0
   -2.7464    6.8692    3.5558 H   0  0  0  0  0  0  0  0  0  0  0  0
   -0.8281    5.7919    2.4379 H   0  0  0  0  0  0  0  0  0  0  0  0
   -1.8561    6.5218    1.2005 H   0  0  0  0  0  0  0  0  0  0  0  0
   -2.2770   -2.1444   -5.1168 H   0  0  0  0  0  0  0  0  0  0  0  0
   -4.3283   -1.6445   -3.8647 H   0  0  0  0  0  0  0  0  0  0  0  0
   -2.0409    0.1373   -0.7026 H   0  0  0  0  0  0  0  0  0  0  0  0
  1  2  1  0  0  0  0
  2  3  1  0  0  0  0
  2  5  1  0  0  0  0
  3  4  1  0  0  0  0
  5  6  2  0  0  0  0
  5 10  1  0  0  0  0
  6  7  1  0  0  0  0
  7  8  2  0  0  0  0
  8  9  1  0  0  0  0
  9 10  2  0  0  0  0
 10 11  1  0  0  0  0
 11 12  1  0  0  0  0
 11 15  2  0  0  0  0
 12 13  1  0  0  0  0
 12 68  1  0  0  0  0
 13 14  1  0  0  0  0
 15 16  1  0  0  0  0
 15 67  1  0  0  0  0
 16 17  1  0  0  0  0
 17 18  1  0  0  0  0
 17 19  1  0  0  0  0
 17 20  1  0  0  0  0
 20 21  1  0  0  0  0
 21 22  1  0  0  0  0
 22 23  1  0  0  0  0
 22 66  2  0  0  0  0
 23 24  1  0  0  0  0
 23 65  1  0  0  0  0
 24 25  1  0  0  0  0
 25 26  1  0  0  0  0
 25 63  1  0  0  0  0
 26 27  1  0  0  0  0
 26 62  2  0  0  0  0
 27 28  1  0  0  0  0
 27 55  1  0  0  0  0
 28 29  1  0  0  0  0
 29 30  1  0  0  0  0
 29 54  2  0  0  0  0
 30 31  1  0  0  0  0
 30 34  1  0  0  0  0
 31 32  1  0  0  0  0
 31 33  1  0  0  0  0
 34 35  1  0  0  0  0
 34 53  1  0  0  0  0
 35 36  1  0  0  0  0
 35 52  2  0  0  0  0
 36 37  1  0  0  0  0
 36 51  1  0  0  0  0
 36 73  1  0  0  0  0
 37 38  1  0  0  0  0
 38 39  1  0  0  0  0
 39 40  1  0  0  0  0
 39 50  1  0  0  0  0
 40 41  1  0  0  0  0
 40 49  2  0  0  0  0
 42 43  1  0  0  0  0
 43 44  1  0  0  0  0
 43 47  1  0  0  0  0
 43 48  1  0  0  0  0
 44 45  1  0  0  0  0
 44 46  1  0  0  0  0
 50 51  1  0  0  0  0
 55 56  1  0  0  0  0
 56 57  1  0  0  0  0
 56 61  1  0  0  0  0
 57 58  1  0  0  0  0
 58 59  1  0  0  0  0
 58 71  1  0  0  0  0
 59 60  1  0  0  0  0
 60 61  1  0  0  0  0
 63 64  1  0  0  0  0
 64 65  1  0  0  0  0
 67 68  2  0  0  0  0
 67 72  1  0  0  0  0
 68 69  1  0  0  0  0
 69 70  2  0  0  0  0
 70 71  1  0  0  0  0
 71 72  2  0  0  0  0
 41 42  3  0  0  0  0
  1 74  1  0  0  0  0
  1 75  1  0  0  0  0
  1 76  1  0  0  0  0
  2 77  1  0  0  0  0
  4 78  1  0  0  0  0
  4 79  1  0  0  0  0
  4 80  1  0  0  0  0
  7 81  1  0  0  0  0
  8 82  1  0  0  0  0
  9 83  1  0  0  0  0
 13 84  1  0  0  0  0
 13 85  1  0  0  0  0
 14 86  1  0  0  0  0
 14 87  1  0  0  0  0
 14 88  1  0  0  0  0
 16 89  1  0  0  0  0
 16 90  1  0  0  0  0
 18 91  1  0  0  0  0
 18 92  1  0  0  0  0
 18 93  1  0  0  0  0
 19 94  1  0  0  0  0
 19 95  1  0  0  0  0
 19 96  1  0  0  0  0
 20 97  1  0  0  0  0
 20 98  1  0  0  0  0
 23 99  1  0  0  0  0
 24100  1  0  0  0  0
 27101  1  0  0  0  0
 28102  1  0  0  0  0
 30103  1  0  0  0  0
 31104  1  0  0  0  0
 32105  1  0  0  0  0
 32106  1  0  0  0  0
 32107  1  0  0  0  0
 33108  1  0  0  0  0
 33109  1  0  0  0  0
 33110  1  0  0  0  0
 37111  1  0  0  0  0
 37112  1  0  0  0  0
 38113  1  0  0  0  0
 38114  1  0  0  0  0
 45115  1  0  0  0  0
 45116  1  0  0  0  0
 45117  1  0  0  0  0
 46118  1  0  0  0  0
 46119  1  0  0  0  0
 46120  1  0  0  0  0
 47121  1  0  0  0  0
 47122  1  0  0  0  0
 47123  1  0  0  0  0
 48124  1  0  0  0  0
 48125  1  0  0  0  0
 48126  1  0  0  0  0
 50127  1  0  0  0  0
 50128  1  0  0  0  0
 51129  1  0  0  0  0
 51130  1  0  0  0  0
 53131  1  0  0  0  0
 53132  1  0  0  0  0
 53133  1  0  0  0  0
 55134  1  0  0  0  0
 55135  1  0  0  0  0
 56136  1  0  0  0  0
 57137  1  0  0  0  0
 57138  1  0  0  0  0
 59139  1  0  0  0  0
 59140  1  0  0  0  0
 60141  1  0  0  0  0
 60142  1  0  0  0  0
 63143  1  0  0  0  0
 63144  1  0  0  0  0
 64145  1  0  0  0  0
 64146  1  0  0  0  0
 65147  1  0  0  0  0
 65148  1  0  0  0  0
 69149  1  0  0  0  0
 70150  1  0  0  0  0
 72151  1  0  0  0  0
M  END
$$$$
