mol_bioactive_36
     RDKit          3D

151157  0  0  0  0  0  0  0  0999 V2000
   -3.1319   -6.5448   -2.2657 C   0  0  0  0  0  0  0  0  0  0  0  0
   -3.9275   -6.1163   -1.0409 C   0  0  2  0  0  0  0  0  0  0  0  0
   -3.8210   -4.7025   -0.8408 O   0  0  0  0  0  0  0  0  0  0  0  0
   -4.9324   -3.9926   -1.3643 C   0  0  0  0  0  0  0  0  0  0  0  0
   -3.5320   -6.9328    0.1796 C   0  0  0  0  0  0  0  0  0  0  0  0
   -4.4197   -7.9418    0.4495 N   0  0  0  0  0  0  0  0  0  0  0  0
   -4.1402   -8.8003    1.4503 C   0  0  0  0  0  0  0  0  0  0  0  0
   -2.9936   -8.7357    2.2111 C   0  0  0  0  0  0  0  0  0  0  0  0
   -2.0911   -7.7158    1.9345 C   0  0  0  0  0  0  0  0  0  0  0  0
   -2.3487   -6.7754    0.9238 C   0  0  0  0  0  0  0  0  0  0  0  0
   -1.3529   -5.7121    0.7244 C   0  0  0  0  0  0  0  0  0  0  0  0
   -0.1465   -5.9021    0.0607 N   0  0  0  0  0  0  0  0  0  0  0  0
    0.2932   -7.1375   -0.5802 C   0  0  0  0  0  0  0  0  0  0  0  0
    1.2922   -7.9084    0.2651 C   0  0  0  0  0  0  0  0  0  0  0  0
   -1.3608   -4.3985    1.1995 C   0  0  0  0  0  0  0  0  0  0  0  0
   -2.4519   -3.6836    1.9716 C   0  0  0  0  0  0  0  0  0  0  0  0
   -2.3710   -3.6814    3.5245 C   0  0  0  0  0  0  0  0  0  0  0  0
   -3.5959   -2.9021    4.0532 C   0  0  0  0  0  0  0  0  0  0  0  0
   -2.4630   -5.1156    4.0741 C   0  0  0  0  0  0  0  0  0  0  0  0
   -1.0698   -3.0420    4.0775 C   0  0  0  0  0  0  0  0  0  0  0  0
   -1.1112   -1.5964    4.0482 O   0  0  0  0  0  0  0  0  0  0  0  0
   -0.9007   -0.9781    5.2571 C   0  0  0  0  0  0  0  0  0  0  0  0
   -0.8705    0.5471    5.1225 C   0  0  1  0  0  0  0  0  0  0  0  0
   -1.9542    1.0459    4.2545 N   0  0  0  0  0  0  0  0  0  0  0  0
   -1.8748    2.4645    4.1256 N   0  0  0  0  0  0  0  0  0  0  0  0
   -1.1220    3.1275    3.1390 C   0  0  0  0  0  0  0  0  0  0  0  0
   -0.4773    2.2781    2.0261 C   0  0  1  0  0  0  0  0  0  0  0  0
   -1.1058    2.5762    0.7485 N   0  0  0  0  0  0  0  0  0  0  0  0
   -2.1535    1.8256    0.2639 C   0  0  0  0  0  0  0  0  0  0  0  0
   -2.7013    2.2853   -1.1151 C   0  0  2  0  0  0  0  0  0  0  0  0
   -3.9607    3.1773   -0.9727 C   0  0  0  0  0  0  0  0  0  0  0  0
   -4.3926    3.7266   -2.3416 C   0  0  0  0  0  0  0  0  0  0  0  0
   -3.7391    4.3602   -0.0200 C   0  0  0  0  0  0  0  0  0  0  0  0
   -2.8773    1.0811   -1.9830 N   0  0  0  0  0  0  0  0  0  0  0  0
   -1.7403    0.6449   -2.6719 C   0  0  0  0  0  0  0  0  0  0  0  0
   -1.7317   -0.7287   -3.3981 C   0  0  0  0  0  0  0  0  0  0  0  0
   -1.7331   -1.8796   -2.3882 C   0  0  0  0  0  0  0  0  0  0  0  0
   -1.5812   -3.2278   -3.0771 C   0  0  0  0  0  0  0  0  0  0  0  0
   -0.3913   -3.2456   -3.9109 N   0  0  0  0  0  0  0  0  0  0  0  0
    0.2576   -4.4583   -4.0947 C   0  0  0  0  0  0  0  0  0  0  0  0
    1.6198   -4.4055   -4.5865 C   0  0  0  0  0  0  0  0  0  0  0  0
    2.7995   -4.3315   -4.8184 C   0  0  0  0  0  0  0  0  0  0  0  0
    4.2601   -4.1794   -4.9065 C   0  0  0  0  0  0  0  0  0  0  0  0
    4.7476   -3.9730   -6.2910 N   0  0  0  0  0  0  0  0  0  0  0  0
    4.7675   -5.1948   -7.1085 C   0  0  0  0  0  0  0  0  0  0  0  0
    4.0765   -2.8992   -7.0261 C   0  0  0  0  0  0  0  0  0  0  0  0
    4.6648   -2.9601   -4.0467 C   0  0  0  0  0  0  0  0  0  0  0  0
    4.9084   -5.4121   -4.2307 C   0  0  0  0  0  0  0  0  0  0  0  0
   -0.2057   -5.5510   -3.7984 O   0  0  0  0  0  0  0  0  0  0  0  0
   -0.3103   -2.1912   -4.9134 C   0  0  0  0  0  0  0  0  0  0  0  0
   -0.4802   -0.8171   -4.2865 C   0  0  0  0  0  0  0  0  0  0  0  0
   -0.7197    1.3474   -2.6817 O   0  0  0  0  0  0  0  0  0  0  0  0
   -4.0769    0.2644   -1.7985 C   0  0  0  0  0  0  0  0  0  0  0  0
   -2.6103    0.8728    0.8966 O   0  0  0  0  0  0  0  0  0  0  0  0
    1.0451    2.5286    2.0049 C   0  0  0  0  0  0  0  0  0  0  0  0
    1.8484    1.5953    1.0742 C   0  0  1  0  0  0  0  0  0  0  0  0
    1.3669    0.1358    1.1706 C   0  0  0  0  0  0  0  0  0  0  0  0
    2.0688   -0.7583    0.2230 N   0  0  0  0  0  0  0  0  0  0  0  0
    1.9846   -0.2026   -1.1513 C   0  0  0  0  0  0  0  0  0  0  0  0
    2.4709    1.2549   -1.1750 C   0  0  0  0  0  0  0  0  0  0  0  0
    1.7230    2.0884   -0.2698 O   0  0  0  0  0  0  0  0  0  0  0  0
   -0.9706    4.3531    3.1444 O   0  0  0  0  0  0  0  0  0  0  0  0
   -2.1775    3.1613    5.3784 C   0  0  0  0  0  0  0  0  0  0  0  0
   -1.1295    2.7450    6.4167 C   0  0  0  0  0  0  0  0  0  0  0  0
   -1.0238    1.2156    6.5081 C   0  0  0  0  0  0  0  0  0  0  0  0
   -0.6670   -1.5635    6.3118 O   0  0  0  0  0  0  0  0  0  0  0  0
   -0.1551   -3.7808    0.7297 C   0  0  0  0  0  0  0  0  0  0  0  0
    0.5875   -4.7306    0.0384 C   0  0  0  0  0  0  0  0  0  0  0  0
    1.8321   -4.4184   -0.5315 C   0  0  0  0  0  0  0  0  0  0  0  0
    2.3018   -3.1012   -0.4209 C   0  0  0  0  0  0  0  0  0  0  0  0
    1.5740   -2.0986    0.2260 C   0  0  0  0  0  0  0  0  0  0  0  0
    0.3573   -2.4692    0.8281 C   0  0  0  0  0  0  0  0  0  0  0  0
   -2.8172   -0.8683   -4.2231 F   0  0  0  0  0  0  0  0  0  0  0  0
   -2.0714   -6.3089   -2.1458 H   0  0  0  0  0  0  0  0  0  0  0  0
   -3.2236   -7.6190   -2.4517 H   0  0  0  0  0  0  0  0  0  0  0  0
   -3.4774   -6.0095   -3.1573 H   0  0  0  0  0  0  0  0  0  0  0  0
   -4.9794   -6.3639   -1.2453 H   0  0  0  0  0  0  0  0  0  0  0  0
   -4.7830   -2.9279   -1.1738 H   0  0  0  0  0  0  0  0  0  0  0  0
   -5.0140   -4.1441   -2.4448 H   0  0  0  0  0  0  0  0  0  0  0  0
   -5.8589   -4.3030   -0.8674 H   0  0  0  0  0  0  0  0  0  0  0  0
   -4.8914   -9.5669    1.6251 H   0  0  0  0  0  0  0  0  0  0  0  0
   -2.8099   -9.4528    3.0001 H   0  0  0  0  0  0  0  0  0  0  0  0
   -1.1863   -7.6399    2.5314 H   0  0  0  0  0  0  0  0  0  0  0  0
   -0.5815   -7.7574   -0.7893 H   0  0  0  0  0  0  0  0  0  0  0  0
    0.7324   -6.8742   -1.5457 H   0  0  0  0  0  0  0  0  0  0  0  0
    0.8833   -8.1455    1.2518 H   0  0  0  0  0  0  0  0  0  0  0  0
    1.5578   -8.8498   -0.2294 H   0  0  0  0  0  0  0  0  0  0  0  0
    2.2126   -7.3337    0.4172 H   0  0  0  0  0  0  0  0  0  0  0  0
   -2.4968   -2.6440    1.6139 H   0  0  0  0  0  0  0  0  0  0  0  0
   -3.4159   -4.1214    1.6777 H   0  0  0  0  0  0  0  0  0  0  0  0
   -3.5791   -2.8340    5.1488 H   0  0  0  0  0  0  0  0  0  0  0  0
   -3.6251   -1.8809    3.6548 H   0  0  0  0  0  0  0  0  0  0  0  0
   -4.5315   -3.3921    3.7652 H   0  0  0  0  0  0  0  0  0  0  0  0
   -2.5523   -5.1149    5.1675 H   0  0  0  0  0  0  0  0  0  0  0  0
   -3.3424   -5.6357    3.6785 H   0  0  0  0  0  0  0  0  0  0  0  0
   -1.5653   -5.6908    3.8296 H   0  0  0  0  0  0  0  0  0  0  0  0
   -0.9034   -3.4122    5.0927 H   0  0  0  0  0  0  0  0  0  0  0  0
   -0.1953   -3.3612    3.5079 H   0  0  0  0  0  0  0  0  0  0  0  0
    0.1092    0.8027    4.6971 H   0  0  0  0  0  0  0  0  0  0  0  0
   -2.0249    0.5631    3.3539 H   0  0  0  0  0  0  0  0  0  0  0  0
   -0.6417    1.2313    2.2530 H   0  0  0  0  0  0  0  0  0  0  0  0
   -0.7222    3.3365    0.1950 H   0  0  0  0  0  0  0  0  0  0  0  0
   -1.9245    2.9111   -1.5726 H   0  0  0  0  0  0  0  0  0  0  0  0
   -4.7899    2.5936   -0.5556 H   0  0  0  0  0  0  0  0  0  0  0  0
   -5.3079    4.3193   -2.2484 H   0  0  0  0  0  0  0  0  0  0  0  0
   -3.6163    4.3715   -2.7687 H   0  0  0  0  0  0  0  0  0  0  0  0
   -4.5909    2.9223   -3.0557 H   0  0  0  0  0  0  0  0  0  0  0  0
   -3.5746    4.0163    1.0069 H   0  0  0  0  0  0  0  0  0  0  0  0
   -2.8774    4.9640   -0.3271 H   0  0  0  0  0  0  0  0  0  0  0  0
   -4.6210    5.0120   -0.0017 H   0  0  0  0  0  0  0  0  0  0  0  0
   -0.9143   -1.7356   -1.6785 H   0  0  0  0  0  0  0  0  0  0  0  0
   -2.6516   -1.9064   -1.8050 H   0  0  0  0  0  0  0  0  0  0  0  0
   -1.5070   -4.0147   -2.3215 H   0  0  0  0  0  0  0  0  0  0  0  0
   -2.4486   -3.4513   -3.7087 H   0  0  0  0  0  0  0  0  0  0  0  0
    5.4889   -5.9170   -6.7039 H   0  0  0  0  0  0  0  0  0  0  0  0
    3.7798   -5.6659   -7.1769 H   0  0  0  0  0  0  0  0  0  0  0  0
    5.1140   -4.9775   -8.1251 H   0  0  0  0  0  0  0  0  0  0  0  0
    4.0956   -1.9443   -6.4877 H   0  0  0  0  0  0  0  0  0  0  0  0
    4.6080   -2.7142   -7.9709 H   0  0  0  0  0  0  0  0  0  0  0  0
    3.0339   -3.1447   -7.2744 H   0  0  0  0  0  0  0  0  0  0  0  0
    4.4608   -3.1270   -2.9786 H   0  0  0  0  0  0  0  0  0  0  0  0
    5.7415   -2.7548   -4.1453 H   0  0  0  0  0  0  0  0  0  0  0  0
    4.1147   -2.0535   -4.3254 H   0  0  0  0  0  0  0  0  0  0  0  0
    4.6447   -5.4729   -3.1654 H   0  0  0  0  0  0  0  0  0  0  0  0
    4.5687   -6.3570   -4.6814 H   0  0  0  0  0  0  0  0  0  0  0  0
    6.0051   -5.3703   -4.2947 H   0  0  0  0  0  0  0  0  0  0  0  0
    0.6406   -2.2364   -5.4523 H   0  0  0  0  0  0  0  0  0  0  0  0
   -1.1019   -2.3763   -5.6481 H   0  0  0  0  0  0  0  0  0  0  0  0
   -0.5354   -0.0685   -5.0862 H   0  0  0  0  0  0  0  0  0  0  0  0
    0.4231   -0.5986   -3.7059 H   0  0  0  0  0  0  0  0  0  0  0  0
   -4.0015   -0.2801   -0.8541 H   0  0  0  0  0  0  0  0  0  0  0  0
   -4.9699    0.8859   -1.7900 H   0  0  0  0  0  0  0  0  0  0  0  0
   -4.2044   -0.4517   -2.6070 H   0  0  0  0  0  0  0  0  0  0  0  0
    1.2406    3.5718    1.7140 H   0  0  0  0  0  0  0  0  0  0  0  0
    1.4244    2.3978    3.0261 H   0  0  0  0  0  0  0  0  0  0  0  0
    2.9091    1.6570    1.3542 H   0  0  0  0  0  0  0  0  0  0  0  0
    1.4920   -0.2264    2.1979 H   0  0  0  0  0  0  0  0  0  0  0  0
    0.3128    0.1248    0.8937 H   0  0  0  0  0  0  0  0  0  0  0  0
    2.5823   -0.7838   -1.8601 H   0  0  0  0  0  0  0  0  0  0  0  0
    0.9393   -0.2265   -1.4761 H   0  0  0  0  0  0  0  0  0  0  0  0
    3.5350    1.3159   -0.9231 H   0  0  0  0  0  0  0  0  0  0  0  0
    2.3419    1.6677   -2.1813 H   0  0  0  0  0  0  0  0  0  0  0  0
   -2.1590    4.2465    5.2360 H   0  0  0  0  0  0  0  0  0  0  0  0
   -3.1837    2.8718    5.7001 H   0  0  0  0  0  0  0  0  0  0  0  0
   -0.1520    3.1498    6.1291 H   0  0  0  0  0  0  0  0  0  0  0  0
   -1.3821    3.1643    7.3960 H   0  0  0  0  0  0  0  0  0  0  0  0
   -1.9217    0.8246    7.0036 H   0  0  0  0  0  0  0  0  0  0  0  0
   -0.1724    0.9513    7.1466 H   0  0  0  0  0  0  0  0  0  0  0  0
    2.4196   -5.1624   -1.0591 H   0  0  0  0  0  0  0  0  0  0  0  0
    3.2664   -2.8590   -0.8593 H   0  0  0  0  0  0  0  0  0  0  0  0
   -0.2658   -1.7575    1.3517 H   0  0  0  0  0  0  0  0  0  0  0  0
  1  2  1  0
  2  3  1  0
  2  5  1  0
  3  4  1  0
  5  6  2  0
  5 10  1  0
  6  7  1  0
  7  8  2  0
  8  9  1  0
  9 10  2  0
 10 11  1  0
 11 12  1  0
 11 15  2  0
 12 13  1  0
 12 68  1  0
 13 14  1  0
 15 16  1  0
 15 67  1  0
 16 17  1  0
 17 18  1  0
 17 19  1  0
 17 20  1  0
 20 21  1  0
 21 22  1  0
 22 23  1  0
 22 66  2  0
 23 24  1  0
 23 65  1  0
 24 25  1  0
 25 26  1  0
 25 63  1  0
 26 27  1  0
 26 62  2  0
 27 28  1  0
 27 55  1  0
 28 29  1  0
 29 30  1  0
 29 54  2  0
 30 31  1  0
 30 34  1  0
 31 32  1  0
 31 33  1  0
 34 35  1  0
 34 53  1  0
 35 36  1  0
 35 52  2  0
 36 37  1  0
 36 51  1  0
 36 73  1  0
 37 38  1  0
 38 39  1  0
 39 40  1  0
 39 50  1  0
 40 41  1  0
 40 49  2  0
 42 43  1  0
 43 44  1  0
 43 47  1  0
 43 48  1  0
 44 45  1  0
 44 46  1  0
 50 51  1  0
 55 56  1  0
 56 57  1  0
 56 61  1  0
 57 58  1  0
 58 59  1  0
 58 71  1  0
 59 60  1  0
 60 61  1  0
 63 64  1  0
 64 65  1  0
 67 68  2  0
 67 72  1  0
 68 69  1  0
 69 70  2  0
 70 71  1  0
 71 72  2  0
 41 42  3  0
  1 74  1  0
  1 75  1  0
  1 76  1  0
  2 77  1  6
  4 78  1  0
  4 79  1  0
  4 80  1  0
  7 81  1  0
  8 82  1  0
  9 83  1  0
 13 84  1  0
 13 85  1  0
 14 86  1  0
 14 87  1  0
 14 88  1  0
 16 89  1  0
 16 90  1  0
 18 91  1  0
 18 92  1  0
 18 93  1  0
 19 94  1  0
 19 95  1  0
 19 96  1  0
 20 97  1  0
 20 98  1  0
 23 99  1  6
 24100  1  0
 27101  1  1
 28102  1  0
 30103  1  6
 31104  1  0
 32105  1  0
 32106  1  0
 32107  1  0
 33108  1  0
 33109  1  0
 33110  1  0
 37111  1  0
 37112  1  0
 38113  1  0
 38114  1  0
 45115  1  0
 45116  1  0
 45117  1  0
 46118  1  0
 46119  1  0
 46120  1  0
 47121  1  0
 47122  1  0
 47123  1  0
 48124  1  0
 48125  1  0
 48126  1  0
 50127  1  0
 50128  1  0
 51129  1  0
 51130  1  0
 53131  1  0
 53132  1  0
 53133  1  0
 55134  1  0
 55135  1  0
 56136  1  1
 57137  1  0
 57138  1  0
 59139  1  0
 59140  1  0
 60141  1  0
 60142  1  0
 63143  1  0
 63144  1  0
 64145  1  0
 64146  1  0
 65147  1  0
 65148  1  0
 69149  1  0
 70150  1  0
 72151  1  0
M  END
$$$$
