mol_bioactive_27
     RDKit          3D

151157  0  0  0  0  0  0  0  0999 V2000
    0.6476   -4.8367    6.8842 C   0  0  0  0  0  0  0  0  0  0  0  0
    0.8120   -4.0706    5.5673 C   0  0  2  0  0  0  0  0  0  0  0  0
    0.8092   -2.6631    5.8485 O   0  0  0  0  0  0  0  0  0  0  0  0
    2.1015   -2.1579    6.1574 C   0  0  0  0  0  0  0  0  0  0  0  0
   -0.3002   -4.4133    4.5744 C   0  0  0  0  0  0  0  0  0  0  0  0
   -1.5366   -4.6501    5.1078 N   0  0  0  0  0  0  0  0  0  0  0  0
   -2.5524   -4.9350    4.2665 C   0  0  0  0  0  0  0  0  0  0  0  0
   -2.4149   -5.0103    2.8955 C   0  0  0  0  0  0  0  0  0  0  0  0
   -1.1590   -4.7728    2.3511 C   0  0  0  0  0  0  0  0  0  0  0  0
   -0.0755   -4.4597    3.1839 C   0  0  0  0  0  0  0  0  0  0  0  0
    1.2307   -4.2182    2.5612 C   0  0  0  0  0  0  0  0  0  0  0  0
    2.2358   -5.1791    2.5217 N   0  0  0  0  0  0  0  0  0  0  0  0
    2.0902   -6.5897    2.8646 C   0  0  0  0  0  0  0  0  0  0  0  0
    2.7222   -6.9775    4.1902 C   0  0  0  0  0  0  0  0  0  0  0  0
    1.6600   -3.1452    1.7766 C   0  0  0  0  0  0  0  0  0  0  0  0
    0.8617   -1.9936    1.1966 C   0  0  0  0  0  0  0  0  0  0  0  0
    0.5720   -0.7299    2.0458 C   0  0  0  0  0  0  0  0  0  0  0  0
   -0.0137    0.3459    1.0961 C   0  0  0  0  0  0  0  0  0  0  0  0
   -0.5156   -1.0271    3.0914 C   0  0  0  0  0  0  0  0  0  0  0  0
    1.8173   -0.1600    2.7659 C   0  0  0  0  0  0  0  0  0  0  0  0
    2.6748    0.5755    1.8669 O   0  0  0  0  0  0  0  0  0  0  0  0
    3.4806    1.4850    2.4994 C   0  0  0  0  0  0  0  0  0  0  0  0
    4.2586    2.3755    1.5183 C   0  0  1  0  0  0  0  0  0  0  0  0
    3.5290    2.5609    0.2497 N   0  0  0  0  0  0  0  0  0  0  0  0
    4.2413    3.4038   -0.6437 N   0  0  0  0  0  0  0  0  0  0  0  0
    5.0136    2.9737   -1.7330 C   0  0  0  0  0  0  0  0  0  0  0  0
    5.2939    1.4651   -1.8520 C   0  0  1  0  0  0  0  0  0  0  0  0
    5.0826    0.9828   -3.2062 N   0  0  0  0  0  0  0  0  0  0  0  0
    3.8712    0.4478   -3.5879 C   0  0  0  0  0  0  0  0  0  0  0  0
    3.8270   -0.1207   -5.0343 C   0  0  2  0  0  0  0  0  0  0  0  0
    3.3709    0.9344   -6.0750 C   0  0  0  0  0  0  0  0  0  0  0  0
    3.4793    0.3687   -7.4989 C   0  0  0  0  0  0  0  0  0  0  0  0
    4.1968    2.2254   -6.0088 C   0  0  0  0  0  0  0  0  0  0  0  0
    3.0046   -1.3656   -4.9878 N   0  0  0  0  0  0  0  0  0  0  0  0
    3.6685   -2.5215   -4.5655 C   0  0  0  0  0  0  0  0  0  0  0  0
    2.8658   -3.7782   -4.1418 C   0  0  0  0  0  0  0  0  0  0  0  0
    2.1758   -3.5338   -2.7943 C   0  0  0  0  0  0  0  0  0  0  0  0
    1.4895   -4.7938   -2.2844 C   0  0  0  0  0  0  0  0  0  0  0  0
    2.4197   -5.9101   -2.2409 N   0  0  0  0  0  0  0  0  0  0  0  0
    2.3140   -6.8230   -1.1965 C   0  0  0  0  0  0  0  0  0  0  0  0
    3.3190   -7.8593   -1.0950 C   0  0  0  0  0  0  0  0  0  0  0  0
    4.1845   -8.6891   -0.9897 C   0  0  0  0  0  0  0  0  0  0  0  0
    5.2750   -9.6898   -0.8629 C   0  0  0  0  0  0  0  0  0  0  0  0
    4.6937  -10.9834   -0.4228 N   0  0  0  0  0  0  0  0  0  0  0  0
    5.6016  -12.1286   -0.5147 C   0  0  0  0  0  0  0  0  0  0  0  0
    4.0989  -10.9465    0.9175 C   0  0  0  0  0  0  0  0  0  0  0  0
    6.3452   -9.1271    0.0991 C   0  0  0  0  0  0  0  0  0  0  0  0
    5.9158   -9.8085   -2.2682 C   0  0  0  0  0  0  0  0  0  0  0  0
    1.4435   -6.7846   -0.3341 O   0  0  0  0  0  0  0  0  0  0  0  0
    3.1078   -6.2101   -3.4919 C   0  0  0  0  0  0  0  0  0  0  0  0
    3.8155   -4.9827   -4.0376 C   0  0  0  0  0  0  0  0  0  0  0  0
    4.9032   -2.5276   -4.4738 O   0  0  0  0  0  0  0  0  0  0  0  0
    1.5491   -1.2342   -5.0734 C   0  0  0  0  0  0  0  0  0  0  0  0
    2.9105    0.4206   -2.8169 O   0  0  0  0  0  0  0  0  0  0  0  0
    6.7331    1.1979   -1.3643 C   0  0  0  0  0  0  0  0  0  0  0  0
    7.0825   -0.2858   -1.1477 C   0  0  1  0  0  0  0  0  0  0  0  0
    5.9601   -1.0352   -0.4142 C   0  0  0  0  0  0  0  0  0  0  0  0
    6.2982   -2.4524   -0.1961 N   0  0  0  0  0  0  0  0  0  0  0  0
    6.6565   -3.1041   -1.4845 C   0  0  0  0  0  0  0  0  0  0  0  0
    7.7248   -2.2802   -2.2324 C   0  0  0  0  0  0  0  0  0  0  0  0
    7.3404   -0.9043   -2.4217 O   0  0  0  0  0  0  0  0  0  0  0  0
    5.5396    3.7639   -2.5227 O   0  0  0  0  0  0  0  0  0  0  0  0
    4.3436    4.7834   -0.1707 C   0  0  0  0  0  0  0  0  0  0  0  0
    5.1068    4.7720    1.1562 C   0  0  0  0  0  0  0  0  0  0  0  0
    4.4873    3.7688    2.1441 C   0  0  0  0  0  0  0  0  0  0  0  0
    3.6121    1.5581    3.7183 O   0  0  0  0  0  0  0  0  0  0  0  0
    3.0382   -3.3954    1.4681 C   0  0  0  0  0  0  0  0  0  0  0  0
    3.3711   -4.6622    1.9274 C   0  0  0  0  0  0  0  0  0  0  0  0
    4.6412   -5.2188    1.7009 C   0  0  0  0  0  0  0  0  0  0  0  0
    5.5874   -4.4564    0.9991 C   0  0  0  0  0  0  0  0  0  0  0  0
    5.3015   -3.1777    0.5101 C   0  0  0  0  0  0  0  0  0  0  0  0
    4.0158   -2.6632    0.7629 C   0  0  0  0  0  0  0  0  0  0  0  0
    1.9161   -4.1116   -5.0717 F   0  0  0  0  0  0  0  0  0  0  0  0
   -0.2047   -4.4612    7.4627 H   0  0  0  0  0  0  0  0  0  0  0  0
    0.5084   -5.9100    6.7149 H   0  0  0  0  0  0  0  0  0  0  0  0
    1.5312   -4.7071    7.5183 H   0  0  0  0  0  0  0  0  0  0  0  0
    1.7776   -4.3532    5.1382 H   0  0  0  0  0  0  0  0  0  0  0  0
    2.5121   -2.6462    7.0453 H   0  0  0  0  0  0  0  0  0  0  0  0
    2.7792   -2.2916    5.3088 H   0  0  0  0  0  0  0  0  0  0  0  0
    2.0107   -1.0875    6.3615 H   0  0  0  0  0  0  0  0  0  0  0  0
   -3.5115   -5.1108    4.7445 H   0  0  0  0  0  0  0  0  0  0  0  0
   -3.2621   -5.2505    2.2642 H   0  0  0  0  0  0  0  0  0  0  0  0
   -1.0191   -4.8396    1.2740 H   0  0  0  0  0  0  0  0  0  0  0  0
    1.0275   -6.8521    2.8565 H   0  0  0  0  0  0  0  0  0  0  0  0
    2.5564   -7.1667    2.0578 H   0  0  0  0  0  0  0  0  0  0  0  0
    2.1743   -6.5534    5.0326 H   0  0  0  0  0  0  0  0  0  0  0  0
    2.7087   -8.0657    4.3079 H   0  0  0  0  0  0  0  0  0  0  0  0
    3.7604   -6.6397    4.2625 H   0  0  0  0  0  0  0  0  0  0  0  0
    1.3755   -1.6766    0.2773 H   0  0  0  0  0  0  0  0  0  0  0  0
   -0.0928   -2.4033    0.8352 H   0  0  0  0  0  0  0  0  0  0  0  0
   -0.2289    1.2747    1.6360 H   0  0  0  0  0  0  0  0  0  0  0  0
    0.6753    0.5863    0.2795 H   0  0  0  0  0  0  0  0  0  0  0  0
   -0.9504    0.0006    0.6421 H   0  0  0  0  0  0  0  0  0  0  0  0
   -0.1406   -1.6853    3.8699 H   0  0  0  0  0  0  0  0  0  0  0  0
   -0.8529   -0.1080    3.5864 H   0  0  0  0  0  0  0  0  0  0  0  0
   -1.3952   -1.4943    2.6375 H   0  0  0  0  0  0  0  0  0  0  0  0
    1.4724    0.5161    3.5612 H   0  0  0  0  0  0  0  0  0  0  0  0
    2.4071   -0.9527    3.2376 H   0  0  0  0  0  0  0  0  0  0  0  0
    5.2170    1.8788    1.3316 H   0  0  0  0  0  0  0  0  0  0  0  0
    3.1884    1.6924   -0.1690 H   0  0  0  0  0  0  0  0  0  0  0  0
    4.5967    0.9374   -1.2110 H   0  0  0  0  0  0  0  0  0  0  0  0
    5.8575    1.0219   -3.8591 H   0  0  0  0  0  0  0  0  0  0  0  0
    4.8554   -0.4044   -5.2920 H   0  0  0  0  0  0  0  0  0  0  0  0
    2.3268    1.2139   -5.8871 H   0  0  0  0  0  0  0  0  0  0  0  0
    2.8902   -0.5448   -7.6240 H   0  0  0  0  0  0  0  0  0  0  0  0
    3.1115    1.0956   -8.2322 H   0  0  0  0  0  0  0  0  0  0  0  0
    4.5194    0.1318   -7.7514 H   0  0  0  0  0  0  0  0  0  0  0  0
    4.0350    2.7539   -5.0646 H   0  0  0  0  0  0  0  0  0  0  0  0
    5.2668    2.0188   -6.1125 H   0  0  0  0  0  0  0  0  0  0  0  0
    3.9081    2.9127   -6.8118 H   0  0  0  0  0  0  0  0  0  0  0  0
    2.9193   -3.1979   -2.0600 H   0  0  0  0  0  0  0  0  0  0  0  0
    1.4256   -2.7405   -2.8642 H   0  0  0  0  0  0  0  0  0  0  0  0
    1.0720   -4.6013   -1.2898 H   0  0  0  0  0  0  0  0  0  0  0  0
    0.6578   -5.0787   -2.9390 H   0  0  0  0  0  0  0  0  0  0  0  0
    6.4976  -12.0045    0.1017 H   0  0  0  0  0  0  0  0  0  0  0  0
    5.0973  -13.0467   -0.1890 H   0  0  0  0  0  0  0  0  0  0  0  0
    5.9068  -12.3203   -1.5483 H   0  0  0  0  0  0  0  0  0  0  0  0
    4.8516  -10.8434    1.7069 H   0  0  0  0  0  0  0  0  0  0  0  0
    3.3706  -10.1361    1.0252 H   0  0  0  0  0  0  0  0  0  0  0  0
    3.5433  -11.8722    1.1080 H   0  0  0  0  0  0  0  0  0  0  0  0
    5.9391   -8.9187    1.0959 H   0  0  0  0  0  0  0  0  0  0  0  0
    7.1933   -9.8120    0.2117 H   0  0  0  0  0  0  0  0  0  0  0  0
    6.7461   -8.1757   -0.2758 H   0  0  0  0  0  0  0  0  0  0  0  0
    6.8232  -10.4228   -2.2604 H   0  0  0  0  0  0  0  0  0  0  0  0
    5.2142  -10.2406   -2.9927 H   0  0  0  0  0  0  0  0  0  0  0  0
    6.2045   -8.8226   -2.6566 H   0  0  0  0  0  0  0  0  0  0  0  0
    3.8303   -7.0205   -3.3687 H   0  0  0  0  0  0  0  0  0  0  0  0
    2.3497   -6.5662   -4.2001 H   0  0  0  0  0  0  0  0  0  0  0  0
    4.2278   -5.2184   -5.0261 H   0  0  0  0  0  0  0  0  0  0  0  0
    4.6623   -4.7514   -3.3812 H   0  0  0  0  0  0  0  0  0  0  0  0
    1.1866   -0.6116   -4.2531 H   0  0  0  0  0  0  0  0  0  0  0  0
    1.2774   -0.7719   -6.0241 H   0  0  0  0  0  0  0  0  0  0  0  0
    1.0330   -2.1896   -5.0316 H   0  0  0  0  0  0  0  0  0  0  0  0
    7.4458    1.6338   -2.0775 H   0  0  0  0  0  0  0  0  0  0  0  0
    6.8818    1.7210   -0.4123 H   0  0  0  0  0  0  0  0  0  0  0  0
    8.0107   -0.3330   -0.5638 H   0  0  0  0  0  0  0  0  0  0  0  0
    5.7633   -0.5351    0.5421 H   0  0  0  0  0  0  0  0  0  0  0  0
    5.0657   -1.0124   -1.0449 H   0  0  0  0  0  0  0  0  0  0  0  0
    7.0448   -4.1154   -1.3265 H   0  0  0  0  0  0  0  0  0  0  0  0
    5.7593   -3.1706   -2.1079 H   0  0  0  0  0  0  0  0  0  0  0  0
    8.6788   -2.3038   -1.6909 H   0  0  0  0  0  0  0  0  0  0  0  0
    7.8955   -2.7119   -3.2234 H   0  0  0  0  0  0  0  0  0  0  0  0
    4.8610    5.4146   -0.8996 H   0  0  0  0  0  0  0  0  0  0  0  0
    3.3303    5.1783   -0.0369 H   0  0  0  0  0  0  0  0  0  0  0  0
    6.1506    4.4854    0.9719 H   0  0  0  0  0  0  0  0  0  0  0  0
    5.1165    5.7754    1.5949 H   0  0  0  0  0  0  0  0  0  0  0  0
    3.5332    4.1730    2.5074 H   0  0  0  0  0  0  0  0  0  0  0  0
    5.1398    3.6812    3.0212 H   0  0  0  0  0  0  0  0  0  0  0  0
    4.8956   -6.2147    2.0497 H   0  0  0  0  0  0  0  0  0  0  0  0
    6.5786   -4.8793    0.8487 H   0  0  0  0  0  0  0  0  0  0  0  0
    3.7120   -1.6885    0.4059 H   0  0  0  0  0  0  0  0  0  0  0  0
  1  2  1  0
  2  3  1  0
  2  5  1  0
  3  4  1  0
  5  6  2  0
  5 10  1  0
  6  7  1  0
  7  8  2  0
  8  9  1  0
  9 10  2  0
 10 11  1  0
 11 12  1  0
 11 15  2  0
 12 13  1  0
 12 68  1  0
 13 14  1  0
 15 16  1  0
 15 67  1  0
 16 17  1  0
 17 18  1  0
 17 19  1  0
 17 20  1  0
 20 21  1  0
 21 22  1  0
 22 23  1  0
 22 66  2  0
 23 24  1  0
 23 65  1  0
 24 25  1  0
 25 26  1  0
 25 63  1  0
 26 27  1  0
 26 62  2  0
 27 28  1  0
 27 55  1  0
 28 29  1  0
 29 30  1  0
 29 54  2  0
 30 31  1  0
 30 34  1  0
 31 32  1  0
 31 33  1  0
 34 35  1  0
 34 53  1  0
 35 36  1  0
 35 52  2  0
 36 37  1  0
 36 51  1  0
 36 73  1  0
 37 38  1  0
 38 39  1  0
 39 40  1  0
 39 50  1  0
 40 41  1  0
 40 49  2  0
 42 43  1  0
 43 44  1  0
 43 47  1  0
 43 48  1  0
 44 45  1  0
 44 46  1  0
 50 51  1  0
 55 56  1  0
 56 57  1  0
 56 61  1  0
 57 58  1  0
 58 59  1  0
 58 71  1  0
 59 60  1  0
 60 61  1  0
 63 64  1  0
 64 65  1  0
 67 68  2  0
 67 72  1  0
 68 69  1  0
 69 70  2  0
 70 71  1  0
 71 72  2  0
 41 42  3  0
  1 74  1  0
  1 75  1  0
  1 76  1  0
  2 77  1  6
  4 78  1  0
  4 79  1  0
  4 80  1  0
  7 81  1  0
  8 82  1  0
  9 83  1  0
 13 84  1  0
 13 85  1  0
 14 86  1  0
 14 87  1  0
 14 88  1  0
 16 89  1  0
 16 90  1  0
 18 91  1  0
 18 92  1  0
 18 93  1  0
 19 94  1  0
 19 95  1  0
 19 96  1  0
 20 97  1  0
 20 98  1  0
 23 99  1  6
 24100  1  0
 27101  1  1
 28102  1  0
 30103  1  6
 31104  1  0
 32105  1  0
 32106  1  0
 32107  1  0
 33108  1  0
 33109  1  0
 33110  1  0
 37111  1  0
 37112  1  0
 38113  1  0
 38114  1  0
 45115  1  0
 45116  1  0
 45117  1  0
 46118  1  0
 46119  1  0
 46120  1  0
 47121  1  0
 47122  1  0
 47123  1  0
 48124  1  0
 48125  1  0
 48126  1  0
 50127  1  0
 50128  1  0
 51129  1  0
 51130  1  0
 53131  1  0
 53132  1  0
 53133  1  0
 55134  1  0
 55135  1  0
 56136  1  1
 57137  1  0
 57138  1  0
 59139  1  0
 59140  1  0
 60141  1  0
 60142  1  0
 63143  1  0
 63144  1  0
 64145  1  0
 64146  1  0
 65147  1  0
 65148  1  0
 69149  1  0
 70150  1  0
 72151  1  0
M  END
$$$$
