 energy: -221.280899395995 gnorm: 0.000336602002 xtb: 6.7.1 (edcfbbe)
          08172520343D

151157  0     0  0            999 V2000
    2.6325    7.5856   -5.3499 C   0  0  0  0  0  0  0  0  0  0  0  0
    2.8070    6.0942   -5.6331 C   0  0  0  0  0  0  0  0  0  0  0  0
    4.1671    5.7320   -5.8267 O   0  0  0  0  0  0  0  0  0  0  0  0
    4.9128    5.6107   -4.6447 C   0  0  0  0  0  0  0  0  0  0  0  0
    2.0826    5.6949   -6.9036 C   0  0  0  0  0  0  0  0  0  0  0  0
    2.0018    6.6092   -7.8554 N   0  0  0  0  0  0  0  0  0  0  0  0
    1.3907    6.3151   -8.9870 C   0  0  0  0  0  0  0  0  0  0  0  0
    0.8047    5.0835   -9.2329 C   0  0  0  0  0  0  0  0  0  0  0  0
    0.8791    4.1219   -8.2409 C   0  0  0  0  0  0  0  0  0  0  0  0
    1.5379    4.4115   -7.0488 C   0  0  0  0  0  0  0  0  0  0  0  0
    1.6235    3.4083   -5.9783 C   0  0  0  0  0  0  0  0  0  0  0  0
    0.5450    3.1757   -5.1525 N   0  0  0  0  0  0  0  0  0  0  0  0
   -0.7336    3.8305   -5.2138 C   0  0  0  0  0  0  0  0  0  0  0  0
   -1.7881    2.9714   -5.9109 C   0  0  0  0  0  0  0  0  0  0  0  0
    2.6830    2.6114   -5.6156 C   0  0  0  0  0  0  0  0  0  0  0  0
    4.0300    2.5634   -6.2607 C   0  0  0  0  0  0  0  0  0  0  0  0
    4.2216    1.4460   -7.3121 C   0  0  0  0  0  0  0  0  0  0  0  0
    5.5227    1.7124   -8.0736 C   0  0  0  0  0  0  0  0  0  0  0  0
    3.0552    1.4206   -8.2989 C   0  0  0  0  0  0  0  0  0  0  0  0
    4.2882    0.0627   -6.6416 C   0  0  0  0  0  0  0  0  0  0  0  0
    5.4425   -0.0799   -5.8023 O   0  0  0  0  0  0  0  0  0  0  0  0
    6.4693   -0.7779   -6.2816 C   0  0  0  0  0  0  0  0  0  0  0  0
    7.6359   -0.7633   -5.2930 C   0  0  0  0  0  0  0  0  0  0  0  0
    7.5507   -1.9790   -4.4776 N   0  0  0  0  0  0  0  0  0  0  0  0
    8.5759   -2.0200   -3.5167 N   0  0  0  0  0  0  0  0  0  0  0  0
    8.4493   -1.9199   -2.1806 C   0  0  0  0  0  0  0  0  0  0  0  0
    7.0254   -1.8061   -1.6136 C   0  0  0  0  0  0  0  0  0  0  0  0
    7.0680   -2.1977   -0.2286 N   0  0  0  0  0  0  0  0  0  0  0  0
    6.2052   -3.0682    0.3131 C   0  0  0  0  0  0  0  0  0  0  0  0
    6.4361   -3.3162    1.8073 C   0  0  0  0  0  0  0  0  0  0  0  0
    6.7391   -4.8013    2.0735 C   0  0  0  0  0  0  0  0  0  0  0  0
    6.8677   -5.0585    3.5719 C   0  0  0  0  0  0  0  0  0  0  0  0
    8.0314   -5.1764    1.3506 C   0  0  0  0  0  0  0  0  0  0  0  0
    5.2911   -2.8148    2.5596 N   0  0  0  0  0  0  0  0  0  0  0  0
    5.5085   -1.7579    3.3629 C   0  0  0  0  0  0  0  0  0  0  0  0
    4.3557   -1.1886    4.2120 C   0  0  0  0  0  0  0  0  0  0  0  0
    4.2818   -1.9598    5.5347 C   0  0  0  0  0  0  0  0  0  0  0  0
    3.2241   -1.3397    6.4485 C   0  0  0  0  0  0  0  0  0  0  0  0
    3.4773    0.0672    6.6424 N   0  0  0  0  0  0  0  0  0  0  0  0
    3.6745    0.5583    7.8900 C   0  0  0  0  0  0  0  0  0  0  0  0
    3.8592    1.9885    7.9624 C   0  0  0  0  0  0  0  0  0  0  0  0
    3.9932    3.1560    8.2224 C   0  0  0  0  0  0  0  0  0  0  0  0
    4.0867    4.5998    8.4221 C   0  0  0  0  0  0  0  0  0  0  0  0
    5.1350    4.8630    9.4117 N   0  0  0  0  0  0  0  0  0  0  0  0
    5.3788    6.2593    9.6970 C   0  0  0  0  0  0  0  0  0  0  0  0
    4.9985    4.1105   10.6420 C   0  0  0  0  0  0  0  0  0  0  0  0
    2.6802    5.0905    8.8306 C   0  0  0  0  0  0  0  0  0  0  0  0
    4.4765    5.2170    7.0674 C   0  0  0  0  0  0  0  0  0  0  0  0
    3.6673   -0.1353    8.8910 O   0  0  0  0  0  0  0  0  0  0  0  0
    3.5267    0.8436    5.4302 C   0  0  0  0  0  0  0  0  0  0  0  0
    4.6027    0.2965    4.4905 C   0  0  0  0  0  0  0  0  0  0  0  0
    6.6167   -1.2686    3.5214 O   0  0  0  0  0  0  0  0  0  0  0  0
    4.0035   -3.4193    2.2965 C   0  0  0  0  0  0  0  0  0  0  0  0
    5.3205   -3.6124   -0.3233 O   0  0  0  0  0  0  0  0  0  0  0  0
    6.5327   -0.3564   -1.7447 C   0  0  0  0  0  0  0  0  0  0  0  0
    5.0582   -0.1506   -1.4017 C   0  0  0  0  0  0  0  0  0  0  0  0
    4.0976   -1.1132   -2.1189 C   0  0  0  0  0  0  0  0  0  0  0  0
    2.7308   -0.7059   -1.8649 N   0  0  0  0  0  0  0  0  0  0  0  0
    2.4950   -0.7714   -0.4351 C   0  0  0  0  0  0  0  0  0  0  0  0
    3.5286    0.0696    0.3319 C   0  0  0  0  0  0  0  0  0  0  0  0
    4.8561   -0.2698   -0.0029 O   0  0  0  0  0  0  0  0  0  0  0  0
    9.4136   -1.9504   -1.4352 O   0  0  0  0  0  0  0  0  0  0  0  0
    9.8789   -2.1331   -4.1436 C   0  0  0  0  0  0  0  0  0  0  0  0
   10.1172   -0.9195   -5.0396 C   0  0  0  0  0  0  0  0  0  0  0  0
    8.9709   -0.7960   -6.0395 C   0  0  0  0  0  0  0  0  0  0  0  0
    6.4864   -1.3544   -7.3335 O   0  0  0  0  0  0  0  0  0  0  0  0
    2.2419    1.8495   -4.4919 C   0  0  0  0  0  0  0  0  0  0  0  0
    0.9034    2.2193   -4.2394 C   0  0  0  0  0  0  0  0  0  0  0  0
    0.1943    1.6304   -3.2002 C   0  0  0  0  0  0  0  0  0  0  0  0
    0.8289    0.6839   -2.4297 C   0  0  0  0  0  0  0  0  0  0  0  0
    2.1774    0.3197   -2.6342 C   0  0  0  0  0  0  0  0  0  0  0  0
    2.8805    0.9233   -3.6690 C   0  0  0  0  0  0  0  0  0  0  0  0
    3.1213   -1.2816    3.5704 F   0  0  0  0  0  0  0  0  0  0  0  0
    3.1385    7.8627   -4.4286 H   0  0  0  0  0  0  0  0  0  0  0  0
    3.0445    8.1549   -6.1770 H   0  0  0  0  0  0  0  0  0  0  0  0
    1.5755    7.8174   -5.2529 H   0  0  0  0  0  0  0  0  0  0  0  0
    2.4004    5.5043   -4.7934 H   0  0  0  0  0  0  0  0  0  0  0  0
    4.4450    4.8966   -3.9547 H   0  0  0  0  0  0  0  0  0  0  0  0
    5.8921    5.2392   -4.9416 H   0  0  0  0  0  0  0  0  0  0  0  0
    5.0364    6.5709   -4.1324 H   0  0  0  0  0  0  0  0  0  0  0  0
    1.3652    7.1087   -9.7221 H   0  0  0  0  0  0  0  0  0  0  0  0
    0.3049    4.8827  -10.1678 H   0  0  0  0  0  0  0  0  0  0  0  0
    0.4379    3.1460   -8.3863 H   0  0  0  0  0  0  0  0  0  0  0  0
   -1.0584    4.0505   -4.1912 H   0  0  0  0  0  0  0  0  0  0  0  0
   -0.6121    4.7781   -5.7470 H   0  0  0  0  0  0  0  0  0  0  0  0
   -1.8852    2.0126   -5.4077 H   0  0  0  0  0  0  0  0  0  0  0  0
   -2.7499    3.4769   -5.8936 H   0  0  0  0  0  0  0  0  0  0  0  0
   -1.5094    2.7911   -6.9458 H   0  0  0  0  0  0  0  0  0  0  0  0
    4.2126    3.5228   -6.7481 H   0  0  0  0  0  0  0  0  0  0  0  0
    4.7888    2.4286   -5.4859 H   0  0  0  0  0  0  0  0  0  0  0  0
    6.3599    1.8184   -7.3860 H   0  0  0  0  0  0  0  0  0  0  0  0
    5.7421    0.8953   -8.7575 H   0  0  0  0  0  0  0  0  0  0  0  0
    5.4372    2.6328   -8.6461 H   0  0  0  0  0  0  0  0  0  0  0  0
    2.1295    1.1654   -7.7886 H   0  0  0  0  0  0  0  0  0  0  0  0
    2.9423    2.3977   -8.7612 H   0  0  0  0  0  0  0  0  0  0  0  0
    3.2341    0.6858   -9.0806 H   0  0  0  0  0  0  0  0  0  0  0  0
    3.4189   -0.0885   -5.9993 H   0  0  0  0  0  0  0  0  0  0  0  0
    4.3251   -0.7194   -7.4059 H   0  0  0  0  0  0  0  0  0  0  0  0
    7.5635    0.1554   -4.6852 H   0  0  0  0  0  0  0  0  0  0  0  0
    6.6413   -2.0752   -4.0392 H   0  0  0  0  0  0  0  0  0  0  0  0
    6.3512   -2.5101   -2.1112 H   0  0  0  0  0  0  0  0  0  0  0  0
    7.8255   -1.8050    0.3110 H   0  0  0  0  0  0  0  0  0  0  0  0
    7.2896   -2.7233    2.1493 H   0  0  0  0  0  0  0  0  0  0  0  0
    5.9295   -5.4153    1.6669 H   0  0  0  0  0  0  0  0  0  0  0  0
    5.9315   -4.8578    4.0865 H   0  0  0  0  0  0  0  0  0  0  0  0
    7.1417   -6.0951    3.7522 H   0  0  0  0  0  0  0  0  0  0  0  0
    7.6362   -4.4177    3.9983 H   0  0  0  0  0  0  0  0  0  0  0  0
    8.2635   -6.2252    1.5187 H   0  0  0  0  0  0  0  0  0  0  0  0
    7.9366   -5.0148    0.2794 H   0  0  0  0  0  0  0  0  0  0  0  0
    8.8623   -4.5772    1.7164 H   0  0  0  0  0  0  0  0  0  0  0  0
    4.0330   -3.0057    5.3501 H   0  0  0  0  0  0  0  0  0  0  0  0
    5.2644   -1.9121    6.0053 H   0  0  0  0  0  0  0  0  0  0  0  0
    2.2331   -1.4667    5.9950 H   0  0  0  0  0  0  0  0  0  0  0  0
    3.2355   -1.8180    7.4300 H   0  0  0  0  0  0  0  0  0  0  0  0
    6.2840    6.3236   10.3013 H   0  0  0  0  0  0  0  0  0  0  0  0
    5.5497    6.8126    8.7776 H   0  0  0  0  0  0  0  0  0  0  0  0
    4.5634    6.7405   10.2595 H   0  0  0  0  0  0  0  0  0  0  0  0
    5.9405    4.1759   11.1871 H   0  0  0  0  0  0  0  0  0  0  0  0
    4.1987    4.4900   11.2965 H   0  0  0  0  0  0  0  0  0  0  0  0
    4.8019    3.0650   10.4159 H   0  0  0  0  0  0  0  0  0  0  0  0
    2.3700    4.6252    9.7630 H   0  0  0  0  0  0  0  0  0  0  0  0
    2.6795    6.1711    8.9521 H   0  0  0  0  0  0  0  0  0  0  0  0
    1.9607    4.8260    8.0596 H   0  0  0  0  0  0  0  0  0  0  0  0
    5.5226    5.0091    6.8588 H   0  0  0  0  0  0  0  0  0  0  0  0
    3.8672    4.7818    6.2782 H   0  0  0  0  0  0  0  0  0  0  0  0
    4.3153    6.2917    7.0647 H   0  0  0  0  0  0  0  0  0  0  0  0
    2.5501    0.7893    4.9307 H   0  0  0  0  0  0  0  0  0  0  0  0
    3.7390    1.8845    5.6797 H   0  0  0  0  0  0  0  0  0  0  0  0
    5.5927    0.3997    4.9326 H   0  0  0  0  0  0  0  0  0  0  0  0
    4.5890    0.8454    3.5475 H   0  0  0  0  0  0  0  0  0  0  0  0
    3.5308   -3.7617    3.2179 H   0  0  0  0  0  0  0  0  0  0  0  0
    3.3333   -2.7209    1.7964 H   0  0  0  0  0  0  0  0  0  0  0  0
    4.1495   -4.2669    1.6345 H   0  0  0  0  0  0  0  0  0  0  0  0
    7.1301    0.2648   -1.0735 H   0  0  0  0  0  0  0  0  0  0  0  0
    6.6834    0.0007   -2.7641 H   0  0  0  0  0  0  0  0  0  0  0  0
    4.7937    0.8827   -1.6952 H   0  0  0  0  0  0  0  0  0  0  0  0
    4.2855   -1.1580   -3.1915 H   0  0  0  0  0  0  0  0  0  0  0  0
    4.2171   -2.1139   -1.6910 H   0  0  0  0  0  0  0  0  0  0  0  0
    1.4966   -0.4222   -0.1817 H   0  0  0  0  0  0  0  0  0  0  0  0
    2.5888   -1.8211   -0.1388 H   0  0  0  0  0  0  0  0  0  0  0  0
    3.3564    1.1366    0.1098 H   0  0  0  0  0  0  0  0  0  0  0  0
    3.4326   -0.0935    1.4054 H   0  0  0  0  0  0  0  0  0  0  0  0
   10.6204   -2.1991   -3.3475 H   0  0  0  0  0  0  0  0  0  0  0  0
    9.8896   -3.0484   -4.7416 H   0  0  0  0  0  0  0  0  0  0  0  0
   10.1714   -0.0199   -4.4224 H   0  0  0  0  0  0  0  0  0  0  0  0
   11.0652   -1.0316   -5.5644 H   0  0  0  0  0  0  0  0  0  0  0  0
    8.9576   -1.6571   -6.7083 H   0  0  0  0  0  0  0  0  0  0  0  0
    9.0769    0.1069   -6.6417 H   0  0  0  0  0  0  0  0  0  0  0  0
   -0.8343    1.8910   -2.9991 H   0  0  0  0  0  0  0  0  0  0  0  0
    0.2629    0.1958   -1.6522 H   0  0  0  0  0  0  0  0  0  0  0  0
    3.9179    0.7066   -3.8591 H   0  0  0  0  0  0  0  0  0  0  0  0
  1  2  1  0  0  0  0
  2  3  1  0  0  0  0
  2  5  1  0  0  0  0
  3  4  1  0  0  0  0
  5  6  2  0  0  0  0
  5 10  1  0  0  0  0
  6  7  1  0  0  0  0
  7  8  2  0  0  0  0
  8  9  1  0  0  0  0
  9 10  2  0  0  0  0
 10 11  1  0  0  0  0
 11 12  1  0  0  0  0
 11 15  2  0  0  0  0
 12 13  1  0  0  0  0
 12 68  1  0  0  0  0
 13 14  1  0  0  0  0
 15 16  1  0  0  0  0
 15 67  1  0  0  0  0
 16 17  1  0  0  0  0
 17 18  1  0  0  0  0
 17 19  1  0  0  0  0
 17 20  1  0  0  0  0
 20 21  1  0  0  0  0
 21 22  1  0  0  0  0
 22 23  1  0  0  0  0
 22 66  2  0  0  0  0
 23 24  1  0  0  0  0
 23 65  1  0  0  0  0
 24 25  1  0  0  0  0
 25 26  1  0  0  0  0
 25 63  1  0  0  0  0
 26 27  1  0  0  0  0
 26 62  2  0  0  0  0
 27 28  1  0  0  0  0
 27 55  1  0  0  0  0
 28 29  1  0  0  0  0
 29 30  1  0  0  0  0
 29 54  2  0  0  0  0
 30 31  1  0  0  0  0
 30 34  1  0  0  0  0
 31 32  1  0  0  0  0
 31 33  1  0  0  0  0
 34 35  1  0  0  0  0
 34 53  1  0  0  0  0
 35 36  1  0  0  0  0
 35 52  2  0  0  0  0
 36 37  1  0  0  0  0
 36 51  1  0  0  0  0
 36 73  1  0  0  0  0
 37 38  1  0  0  0  0
 38 39  1  0  0  0  0
 39 40  1  0  0  0  0
 39 50  1  0  0  0  0
 40 41  1  0  0  0  0
 40 49  2  0  0  0  0
 42 43  1  0  0  0  0
 43 44  1  0  0  0  0
 43 47  1  0  0  0  0
 43 48  1  0  0  0  0
 44 45  1  0  0  0  0
 44 46  1  0  0  0  0
 50 51  1  0  0  0  0
 55 56  1  0  0  0  0
 56 57  1  0  0  0  0
 56 61  1  0  0  0  0
 57 58  1  0  0  0  0
 58 59  1  0  0  0  0
 58 71  1  0  0  0  0
 59 60  1  0  0  0  0
 60 61  1  0  0  0  0
 63 64  1  0  0  0  0
 64 65  1  0  0  0  0
 67 68  2  0  0  0  0
 67 72  1  0  0  0  0
 68 69  1  0  0  0  0
 69 70  2  0  0  0  0
 70 71  1  0  0  0  0
 71 72  2  0  0  0  0
  1 74  1  0  0  0  0
  1 75  1  0  0  0  0
  1 76  1  0  0  0  0
  2 77  1  0  0  0  0
  4 78  1  0  0  0  0
  4 79  1  0  0  0  0
  4 80  1  0  0  0  0
  7 81  1  0  0  0  0
  8 82  1  0  0  0  0
  9 83  1  0  0  0  0
 13 84  1  0  0  0  0
 13 85  1  0  0  0  0
 14 86  1  0  0  0  0
 14 87  1  0  0  0  0
 14 88  1  0  0  0  0
 16 89  1  0  0  0  0
 16 90  1  0  0  0  0
 18 91  1  0  0  0  0
 18 92  1  0  0  0  0
 18 93  1  0  0  0  0
 19 94  1  0  0  0  0
 19 95  1  0  0  0  0
 19 96  1  0  0  0  0
 20 97  1  0  0  0  0
 20 98  1  0  0  0  0
 23 99  1  0  0  0  0
 24100  1  0  0  0  0
 27101  1  0  0  0  0
 28102  1  0  0  0  0
 30103  1  0  0  0  0
 31104  1  0  0  0  0
 32105  1  0  0  0  0
 32106  1  0  0  0  0
 32107  1  0  0  0  0
 33108  1  0  0  0  0
 33109  1  0  0  0  0
 33110  1  0  0  0  0
 37111  1  0  0  0  0
 37112  1  0  0  0  0
 38113  1  0  0  0  0
 38114  1  0  0  0  0
 45115  1  0  0  0  0
 45116  1  0  0  0  0
 45117  1  0  0  0  0
 46118  1  0  0  0  0
 46119  1  0  0  0  0
 46120  1  0  0  0  0
 47121  1  0  0  0  0
 47122  1  0  0  0  0
 47123  1  0  0  0  0
 48124  1  0  0  0  0
 48125  1  0  0  0  0
 48126  1  0  0  0  0
 50127  1  0  0  0  0
 50128  1  0  0  0  0
 51129  1  0  0  0  0
 51130  1  0  0  0  0
 53131  1  0  0  0  0
 53132  1  0  0  0  0
 53133  1  0  0  0  0
 55134  1  0  0  0  0
 55135  1  0  0  0  0
 56136  1  0  0  0  0
 57137  1  0  0  0  0
 57138  1  0  0  0  0
 59139  1  0  0  0  0
 59140  1  0  0  0  0
 60141  1  0  0  0  0
 60142  1  0  0  0  0
 63143  1  0  0  0  0
 63144  1  0  0  0  0
 64145  1  0  0  0  0
 64146  1  0  0  0  0
 65147  1  0  0  0  0
 65148  1  0  0  0  0
 69149  1  0  0  0  0
 70150  1  0  0  0  0
 72151  1  0  0  0  0
 41 42  3  0  0  0  0
M  END
$$$$
