 energy: -221.282355437779 gnorm: 0.000401220145 xtb: 6.7.1 (edcfbbe)
          08172522203D

151157  0     0  0            999 V2000
    1.5923    6.5097   -8.2731 C   0  0  0  0  0  0  0  0  0  0  0  0
    1.7680    5.0340   -7.9106 C   0  0  0  0  0  0  0  0  0  0  0  0
    2.9300    4.4618   -8.4928 O   0  0  0  0  0  0  0  0  0  0  0  0
    4.1404    4.8743   -7.9140 C   0  0  0  0  0  0  0  0  0  0  0  0
    0.5973    4.2226   -8.4289 C   0  0  0  0  0  0  0  0  0  0  0  0
    0.1675    4.5360   -9.6402 N   0  0  0  0  0  0  0  0  0  0  0  0
   -0.8476    3.8761  -10.1620 C   0  0  0  0  0  0  0  0  0  0  0  0
   -1.5158    2.8631   -9.4912 C   0  0  0  0  0  0  0  0  0  0  0  0
   -1.0789    2.5317   -8.2219 C   0  0  0  0  0  0  0  0  0  0  0  0
    0.0089    3.2050   -7.6660 C   0  0  0  0  0  0  0  0  0  0  0  0
    0.4664    2.8624   -6.3145 C   0  0  0  0  0  0  0  0  0  0  0  0
   -0.3217    3.1499   -5.2206 N   0  0  0  0  0  0  0  0  0  0  0  0
   -1.5199    3.9458   -5.2276 C   0  0  0  0  0  0  0  0  0  0  0  0
   -1.2065    5.4325   -5.0614 C   0  0  0  0  0  0  0  0  0  0  0  0
    1.6219    2.2306   -5.9167 C   0  0  0  0  0  0  0  0  0  0  0  0
    2.6952    1.7152   -6.8200 C   0  0  0  0  0  0  0  0  0  0  0  0
    2.5547    0.2319   -7.2363 C   0  0  0  0  0  0  0  0  0  0  0  0
    3.5100   -0.0388   -8.4012 C   0  0  0  0  0  0  0  0  0  0  0  0
    1.1246   -0.0869   -7.6692 C   0  0  0  0  0  0  0  0  0  0  0  0
    2.9156   -0.6897   -6.0667 C   0  0  0  0  0  0  0  0  0  0  0  0
    4.2975   -0.5184   -5.7347 O   0  0  0  0  0  0  0  0  0  0  0  0
    4.7241   -1.0986   -4.6245 C   0  0  0  0  0  0  0  0  0  0  0  0
    6.1874   -0.7863   -4.3447 C   0  0  0  0  0  0  0  0  0  0  0  0
    6.8108   -1.8643   -3.5965 N   0  0  0  0  0  0  0  0  0  0  0  0
    8.0056   -1.4061   -3.0370 N   0  0  0  0  0  0  0  0  0  0  0  0
    8.1224   -0.7438   -1.8628 C   0  0  0  0  0  0  0  0  0  0  0  0
    6.8631   -0.7120   -0.9732 C   0  0  0  0  0  0  0  0  0  0  0  0
    7.0089   -1.6689    0.1000 N   0  0  0  0  0  0  0  0  0  0  0  0
    6.6036   -2.9381   -0.0475 C   0  0  0  0  0  0  0  0  0  0  0  0
    6.6815   -3.7353    1.2572 C   0  0  0  0  0  0  0  0  0  0  0  0
    6.8040   -5.2461    1.0270 C   0  0  0  0  0  0  0  0  0  0  0  0
    6.6435   -6.0071    2.3399 C   0  0  0  0  0  0  0  0  0  0  0  0
    8.1704   -5.5291    0.4050 C   0  0  0  0  0  0  0  0  0  0  0  0
    5.5106   -3.3455    2.0447 N   0  0  0  0  0  0  0  0  0  0  0  0
    5.7151   -2.4321    3.0100 C   0  0  0  0  0  0  0  0  0  0  0  0
    4.5812   -2.0561    3.9765 C   0  0  0  0  0  0  0  0  0  0  0  0
    4.6177   -3.0417    5.1517 C   0  0  0  0  0  0  0  0  0  0  0  0
    3.6060   -2.6260    6.2211 C   0  0  0  0  0  0  0  0  0  0  0  0
    3.8338   -1.2613    6.6295 N   0  0  0  0  0  0  0  0  0  0  0  0
    4.2037   -0.9851    7.9058 C   0  0  0  0  0  0  0  0  0  0  0  0
    4.4206    0.4140    8.1855 C   0  0  0  0  0  0  0  0  0  0  0  0
    4.5873    1.5320    8.6019 C   0  0  0  0  0  0  0  0  0  0  0  0
    4.8771    2.9236    8.9454 C   0  0  0  0  0  0  0  0  0  0  0  0
    6.0567    3.4160    8.2130 N   0  0  0  0  0  0  0  0  0  0  0  0
    5.9090    3.3849    6.7707 C   0  0  0  0  0  0  0  0  0  0  0  0
    7.2970    2.7661    8.5972 C   0  0  0  0  0  0  0  0  0  0  0  0
    5.1155    3.0174   10.4601 C   0  0  0  0  0  0  0  0  0  0  0  0
    3.6522    3.7872    8.5974 C   0  0  0  0  0  0  0  0  0  0  0  0
    4.3237   -1.8400    8.7644 O   0  0  0  0  0  0  0  0  0  0  0  0
    3.7510   -0.2983    5.5616 C   0  0  0  0  0  0  0  0  0  0  0  0
    4.7778   -0.6224    4.4746 C   0  0  0  0  0  0  0  0  0  0  0  0
    6.8234   -1.9638    3.2377 O   0  0  0  0  0  0  0  0  0  0  0  0
    4.2159   -3.7245    1.5176 C   0  0  0  0  0  0  0  0  0  0  0  0
    6.1565   -3.3849   -1.0888 O   0  0  0  0  0  0  0  0  0  0  0  0
    6.6347    0.7023   -0.4368 C   0  0  0  0  0  0  0  0  0  0  0  0
    5.1578    1.0069   -0.1708 C   0  0  0  0  0  0  0  0  0  0  0  0
    4.3322    1.0681   -1.4670 C   0  0  0  0  0  0  0  0  0  0  0  0
    2.9551    1.3660   -1.1359 N   0  0  0  0  0  0  0  0  0  0  0  0
    2.4359    0.3332   -0.2547 C   0  0  0  0  0  0  0  0  0  0  0  0
    3.2876    0.3022    1.0118 C   0  0  0  0  0  0  0  0  0  0  0  0
    4.6396    0.0342    0.7159 O   0  0  0  0  0  0  0  0  0  0  0  0
    9.1725   -0.2489   -1.4975 O   0  0  0  0  0  0  0  0  0  0  0  0
    8.9965   -1.2443   -4.0853 C   0  0  0  0  0  0  0  0  0  0  0  0
    8.4871   -0.2117   -5.0995 C   0  0  0  0  0  0  0  0  0  0  0  0
    7.0725   -0.5615   -5.5746 C   0  0  0  0  0  0  0  0  0  0  0  0
    4.0329   -1.7358   -3.8718 O   0  0  0  0  0  0  0  0  0  0  0  0
    1.5711    2.1619   -4.4908 C   0  0  0  0  0  0  0  0  0  0  0  0
    0.3486    2.7525   -4.0955 C   0  0  0  0  0  0  0  0  0  0  0  0
    0.0012    2.8547   -2.7535 C   0  0  0  0  0  0  0  0  0  0  0  0
    0.8812    2.3654   -1.8191 C   0  0  0  0  0  0  0  0  0  0  0  0
    2.1072    1.7753   -2.1833 C   0  0  0  0  0  0  0  0  0  0  0  0
    2.4528    1.6803   -3.5201 C   0  0  0  0  0  0  0  0  0  0  0  0
    3.3178   -2.1216    3.3960 F   0  0  0  0  0  0  0  0  0  0  0  0
    2.3958    7.1094   -7.8534 H   0  0  0  0  0  0  0  0  0  0  0  0
    1.5871    6.6090   -9.3542 H   0  0  0  0  0  0  0  0  0  0  0  0
    0.6456    6.8738   -7.8821 H   0  0  0  0  0  0  0  0  0  0  0  0
    1.8292    4.9221   -6.8139 H   0  0  0  0  0  0  0  0  0  0  0  0
    4.1269    4.7306   -6.8260 H   0  0  0  0  0  0  0  0  0  0  0  0
    4.9143    4.2464   -8.3523 H   0  0  0  0  0  0  0  0  0  0  0  0
    4.3666    5.9232   -8.1320 H   0  0  0  0  0  0  0  0  0  0  0  0
   -1.1407    4.1825  -11.1575 H   0  0  0  0  0  0  0  0  0  0  0  0
   -2.3498    2.3511   -9.9454 H   0  0  0  0  0  0  0  0  0  0  0  0
   -1.5643    1.7455   -7.6598 H   0  0  0  0  0  0  0  0  0  0  0  0
   -2.0478    3.7846   -6.1711 H   0  0  0  0  0  0  0  0  0  0  0  0
   -2.1621    3.6049   -4.4109 H   0  0  0  0  0  0  0  0  0  0  0  0
   -0.6552    5.5994   -4.1390 H   0  0  0  0  0  0  0  0  0  0  0  0
   -0.6017    5.7821   -5.8953 H   0  0  0  0  0  0  0  0  0  0  0  0
   -2.1268    6.0093   -5.0310 H   0  0  0  0  0  0  0  0  0  0  0  0
    2.6966    2.3162   -7.7305 H   0  0  0  0  0  0  0  0  0  0  0  0
    3.6652    1.8346   -6.3324 H   0  0  0  0  0  0  0  0  0  0  0  0
    4.5327    0.1896   -8.1142 H   0  0  0  0  0  0  0  0  0  0  0  0
    3.4616   -1.0841   -8.6987 H   0  0  0  0  0  0  0  0  0  0  0  0
    3.2423    0.5774   -9.2559 H   0  0  0  0  0  0  0  0  0  0  0  0
    0.4336    0.0431   -6.8399 H   0  0  0  0  0  0  0  0  0  0  0  0
    0.8275    0.5738   -8.4792 H   0  0  0  0  0  0  0  0  0  0  0  0
    1.0538   -1.1148   -8.0181 H   0  0  0  0  0  0  0  0  0  0  0  0
    2.3046   -0.4671   -5.1861 H   0  0  0  0  0  0  0  0  0  0  0  0
    2.7551   -1.7393   -6.3365 H   0  0  0  0  0  0  0  0  0  0  0  0
    6.1692    0.1566   -3.7564 H   0  0  0  0  0  0  0  0  0  0  0  0
    6.2177   -2.3557   -2.9296 H   0  0  0  0  0  0  0  0  0  0  0  0
    5.9900   -1.0373   -1.5431 H   0  0  0  0  0  0  0  0  0  0  0  0
    7.3546   -1.3459    0.9919 H   0  0  0  0  0  0  0  0  0  0  0  0
    7.5521   -3.4003    1.8305 H   0  0  0  0  0  0  0  0  0  0  0  0
    6.0401   -5.5717    0.3150 H   0  0  0  0  0  0  0  0  0  0  0  0
    5.6483   -5.8723    2.7552 H   0  0  0  0  0  0  0  0  0  0  0  0
    6.8045   -7.0699    2.1774 H   0  0  0  0  0  0  0  0  0  0  0  0
    7.3709   -5.6562    3.0691 H   0  0  0  0  0  0  0  0  0  0  0  0
    8.2768   -6.5921    0.2034 H   0  0  0  0  0  0  0  0  0  0  0  0
    8.2787   -4.9898   -0.5324 H   0  0  0  0  0  0  0  0  0  0  0  0
    8.9690   -5.2237    1.0779 H   0  0  0  0  0  0  0  0  0  0  0  0
    4.3875   -4.0478    4.7978 H   0  0  0  0  0  0  0  0  0  0  0  0
    5.6266   -3.0382    5.5656 H   0  0  0  0  0  0  0  0  0  0  0  0
    2.5900   -2.7141    5.8179 H   0  0  0  0  0  0  0  0  0  0  0  0
    3.7010   -3.2592    7.1055 H   0  0  0  0  0  0  0  0  0  0  0  0
    5.0440    3.9674    6.4653 H   0  0  0  0  0  0  0  0  0  0  0  0
    6.7924    3.8446    6.3290 H   0  0  0  0  0  0  0  0  0  0  0  0
    5.8140    2.3647    6.3682 H   0  0  0  0  0  0  0  0  0  0  0  0
    7.5287    2.9834    9.6365 H   0  0  0  0  0  0  0  0  0  0  0  0
    7.2727    1.6761    8.4540 H   0  0  0  0  0  0  0  0  0  0  0  0
    8.0997    3.1750    7.9853 H   0  0  0  0  0  0  0  0  0  0  0  0
    4.1796    2.8477   10.9866 H   0  0  0  0  0  0  0  0  0  0  0  0
    5.8251    2.2678   10.7984 H   0  0  0  0  0  0  0  0  0  0  0  0
    5.4871    4.0083   10.7078 H   0  0  0  0  0  0  0  0  0  0  0  0
    2.8463    3.5782    9.2963 H   0  0  0  0  0  0  0  0  0  0  0  0
    3.9235    4.8370    8.6716 H   0  0  0  0  0  0  0  0  0  0  0  0
    3.2833    3.5811    7.5962 H   0  0  0  0  0  0  0  0  0  0  0  0
    2.7429   -0.3345    5.1288 H   0  0  0  0  0  0  0  0  0  0  0  0
    3.9246    0.7018    5.9625 H   0  0  0  0  0  0  0  0  0  0  0  0
    5.7924   -0.5358    4.8624 H   0  0  0  0  0  0  0  0  0  0  0  0
    4.6683    0.0628    3.6330 H   0  0  0  0  0  0  0  0  0  0  0  0
    3.6143   -4.2366    2.2689 H   0  0  0  0  0  0  0  0  0  0  0  0
    3.6706   -2.8502    1.1608 H   0  0  0  0  0  0  0  0  0  0  0  0
    4.3668   -4.3894    0.6728 H   0  0  0  0  0  0  0  0  0  0  0  0
    7.2012    0.8227    0.4875 H   0  0  0  0  0  0  0  0  0  0  0  0
    7.0160    1.4319   -1.1532 H   0  0  0  0  0  0  0  0  0  0  0  0
    5.0820    1.9983    0.3116 H   0  0  0  0  0  0  0  0  0  0  0  0
    4.7274    1.8695   -2.0953 H   0  0  0  0  0  0  0  0  0  0  0  0
    4.4056    0.1074   -2.0007 H   0  0  0  0  0  0  0  0  0  0  0  0
    1.3993    0.5461    0.0023 H   0  0  0  0  0  0  0  0  0  0  0  0
    2.4840   -0.6543   -0.7447 H   0  0  0  0  0  0  0  0  0  0  0  0
    3.2071    1.2744    1.5238 H   0  0  0  0  0  0  0  0  0  0  0  0
    2.9521   -0.4907    1.6803 H   0  0  0  0  0  0  0  0  0  0  0  0
    9.9294   -0.9178   -3.6264 H   0  0  0  0  0  0  0  0  0  0  0  0
    9.1322   -2.2156   -4.5651 H   0  0  0  0  0  0  0  0  0  0  0  0
    8.4761    0.7712   -4.6216 H   0  0  0  0  0  0  0  0  0  0  0  0
    9.1683   -0.1681   -5.9494 H   0  0  0  0  0  0  0  0  0  0  0  0
    7.0934   -1.4834   -6.1563 H   0  0  0  0  0  0  0  0  0  0  0  0
    6.6709    0.2383   -6.1964 H   0  0  0  0  0  0  0  0  0  0  0  0
   -0.9247    3.3150   -2.4426 H   0  0  0  0  0  0  0  0  0  0  0  0
    0.6438    2.4570   -0.7704 H   0  0  0  0  0  0  0  0  0  0  0  0
    3.3908    1.2456   -3.8255 H   0  0  0  0  0  0  0  0  0  0  0  0
  1  2  1  0  0  0  0
  2  3  1  0  0  0  0
  2  5  1  0  0  0  0
  3  4  1  0  0  0  0
  5  6  2  0  0  0  0
  5 10  1  0  0  0  0
  6  7  1  0  0  0  0
  7  8  2  0  0  0  0
  8  9  1  0  0  0  0
  9 10  2  0  0  0  0
 10 11  1  0  0  0  0
 11 12  1  0  0  0  0
 11 15  2  0  0  0  0
 12 13  1  0  0  0  0
 12 68  1  0  0  0  0
 13 14  1  0  0  0  0
 15 16  1  0  0  0  0
 15 67  1  0  0  0  0
 16 17  1  0  0  0  0
 17 18  1  0  0  0  0
 17 19  1  0  0  0  0
 17 20  1  0  0  0  0
 20 21  1  0  0  0  0
 21 22  1  0  0  0  0
 22 23  1  0  0  0  0
 22 66  2  0  0  0  0
 23 24  1  0  0  0  0
 23 65  1  0  0  0  0
 24 25  1  0  0  0  0
 25 26  1  0  0  0  0
 25 63  1  0  0  0  0
 26 27  1  0  0  0  0
 26 62  2  0  0  0  0
 27 28  1  0  0  0  0
 27 55  1  0  0  0  0
 28 29  1  0  0  0  0
 29 30  1  0  0  0  0
 29 54  2  0  0  0  0
 30 31  1  0  0  0  0
 30 34  1  0  0  0  0
 31 32  1  0  0  0  0
 31 33  1  0  0  0  0
 34 35  1  0  0  0  0
 34 53  1  0  0  0  0
 35 36  1  0  0  0  0
 35 52  2  0  0  0  0
 36 37  1  0  0  0  0
 36 51  1  0  0  0  0
 36 73  1  0  0  0  0
 37 38  1  0  0  0  0
 38 39  1  0  0  0  0
 39 40  1  0  0  0  0
 39 50  1  0  0  0  0
 40 41  1  0  0  0  0
 40 49  2  0  0  0  0
 42 43  1  0  0  0  0
 43 44  1  0  0  0  0
 43 47  1  0  0  0  0
 43 48  1  0  0  0  0
 44 45  1  0  0  0  0
 44 46  1  0  0  0  0
 50 51  1  0  0  0  0
 55 56  1  0  0  0  0
 56 57  1  0  0  0  0
 56 61  1  0  0  0  0
 57 58  1  0  0  0  0
 58 59  1  0  0  0  0
 58 71  1  0  0  0  0
 59 60  1  0  0  0  0
 60 61  1  0  0  0  0
 63 64  1  0  0  0  0
 64 65  1  0  0  0  0
 67 68  2  0  0  0  0
 67 72  1  0  0  0  0
 68 69  1  0  0  0  0
 69 70  2  0  0  0  0
 70 71  1  0  0  0  0
 71 72  2  0  0  0  0
  1 74  1  0  0  0  0
  1 75  1  0  0  0  0
  1 76  1  0  0  0  0
  2 77  1  0  0  0  0
  4 78  1  0  0  0  0
  4 79  1  0  0  0  0
  4 80  1  0  0  0  0
  7 81  1  0  0  0  0
  8 82  1  0  0  0  0
  9 83  1  0  0  0  0
 13 84  1  0  0  0  0
 13 85  1  0  0  0  0
 14 86  1  0  0  0  0
 14 87  1  0  0  0  0
 14 88  1  0  0  0  0
 16 89  1  0  0  0  0
 16 90  1  0  0  0  0
 18 91  1  0  0  0  0
 18 92  1  0  0  0  0
 18 93  1  0  0  0  0
 19 94  1  0  0  0  0
 19 95  1  0  0  0  0
 19 96  1  0  0  0  0
 20 97  1  0  0  0  0
 20 98  1  0  0  0  0
 23 99  1  0  0  0  0
 24100  1  0  0  0  0
 27101  1  0  0  0  0
 28102  1  0  0  0  0
 30103  1  0  0  0  0
 31104  1  0  0  0  0
 32105  1  0  0  0  0
 32106  1  0  0  0  0
 32107  1  0  0  0  0
 33108  1  0  0  0  0
 33109  1  0  0  0  0
 33110  1  0  0  0  0
 37111  1  0  0  0  0
 37112  1  0  0  0  0
 38113  1  0  0  0  0
 38114  1  0  0  0  0
 45115  1  0  0  0  0
 45116  1  0  0  0  0
 45117  1  0  0  0  0
 46118  1  0  0  0  0
 46119  1  0  0  0  0
 46120  1  0  0  0  0
 47121  1  0  0  0  0
 47122  1  0  0  0  0
 47123  1  0  0  0  0
 48124  1  0  0  0  0
 48125  1  0  0  0  0
 48126  1  0  0  0  0
 50127  1  0  0  0  0
 50128  1  0  0  0  0
 51129  1  0  0  0  0
 51130  1  0  0  0  0
 53131  1  0  0  0  0
 53132  1  0  0  0  0
 53133  1  0  0  0  0
 55134  1  0  0  0  0
 55135  1  0  0  0  0
 56136  1  0  0  0  0
 57137  1  0  0  0  0
 57138  1  0  0  0  0
 59139  1  0  0  0  0
 59140  1  0  0  0  0
 60141  1  0  0  0  0
 60142  1  0  0  0  0
 63143  1  0  0  0  0
 63144  1  0  0  0  0
 64145  1  0  0  0  0
 64146  1  0  0  0  0
 65147  1  0  0  0  0
 65148  1  0  0  0  0
 69149  1  0  0  0  0
 70150  1  0  0  0  0
 72151  1  0  0  0  0
 41 42  3  0  0  0  0
M  END
$$$$
