 xtb: 6.7.1 (edcfbbe)
          08232515283D

151157  0     0  0            999 V2000
   -0.7806    6.4115    4.7431 C   0  0  0  0  0  0  0  0  0  0  0  0
   -1.0049    4.9178    4.4979 C   0  0  0  0  0  0  0  0  0  0  0  0
   -2.3309    4.6236    4.0812 O   0  0  0  0  0  0  0  0  0  0  0  0
   -2.6366    5.0321    2.7733 C   0  0  0  0  0  0  0  0  0  0  0  0
   -0.7743    4.1449    5.7808 C   0  0  0  0  0  0  0  0  0  0  0  0
   -1.3054    4.6685    6.8740 N   0  0  0  0  0  0  0  0  0  0  0  0
   -1.1301    4.0665    8.0339 C   0  0  0  0  0  0  0  0  0  0  0  0
   -0.3831    2.9076    8.1796 C   0  0  0  0  0  0  0  0  0  0  0  0
    0.1784    2.3547    7.0438 C   0  0  0  0  0  0  0  0  0  0  0  0
   -0.0262    2.9611    5.8041 C   0  0  0  0  0  0  0  0  0  0  0  0
    0.5530    2.3613    4.5971 C   0  0  0  0  0  0  0  0  0  0  0  0
    1.9190    2.3386    4.4093 N   0  0  0  0  0  0  0  0  0  0  0  0
    2.9043    2.9977    5.2246 C   0  0  0  0  0  0  0  0  0  0  0  0
    3.1904    4.4113    4.7195 C   0  0  0  0  0  0  0  0  0  0  0  0
   -0.0827    1.7277    3.5532 C   0  0  0  0  0  0  0  0  0  0  0  0
   -1.5487    1.5472    3.3186 C   0  0  0  0  0  0  0  0  0  0  0  0
   -2.1800    0.2721    3.9197 C   0  0  0  0  0  0  0  0  0  0  0  0
   -1.3922   -0.9823    3.5474 C   0  0  0  0  0  0  0  0  0  0  0  0
   -2.2490    0.3923    5.4429 C   0  0  0  0  0  0  0  0  0  0  0  0
   -3.6217    0.1535    3.3983 C   0  0  0  0  0  0  0  0  0  0  0  0
   -3.6690   -0.0944    1.9865 O   0  0  0  0  0  0  0  0  0  0  0  0
   -4.4609   -1.0745    1.5638 C   0  0  0  0  0  0  0  0  0  0  0  0
   -4.4303   -1.2012    0.0414 C   0  0  0  0  0  0  0  0  0  0  0  0
   -3.8784   -2.5155   -0.2773 N   0  0  0  0  0  0  0  0  0  0  0  0
   -3.8342   -2.7491   -1.6553 N   0  0  0  0  0  0  0  0  0  0  0  0
   -2.7619   -2.7127   -2.4675 C   0  0  0  0  0  0  0  0  0  0  0  0
   -1.4225   -2.2851   -1.8272 C   0  0  0  0  0  0  0  0  0  0  0  0
   -0.6953   -3.4309   -1.3156 N   0  0  0  0  0  0  0  0  0  0  0  0
   -0.6879   -3.7586   -0.0178 C   0  0  0  0  0  0  0  0  0  0  0  0
    0.1702   -4.9691    0.3494 C   0  0  0  0  0  0  0  0  0  0  0  0
   -0.6306   -6.2824    0.2651 C   0  0  0  0  0  0  0  0  0  0  0  0
    0.2963   -7.4630    0.5531 C   0  0  0  0  0  0  0  0  0  0  0  0
   -1.2603   -6.4502   -1.1167 C   0  0  0  0  0  0  0  0  0  0  0  0
    0.7658   -4.7416    1.6672 N   0  0  0  0  0  0  0  0  0  0  0  0
    2.0219   -4.2652    1.6631 C   0  0  0  0  0  0  0  0  0  0  0  0
    2.7107   -3.8507    2.9787 C   0  0  0  0  0  0  0  0  0  0  0  0
    2.1689   -2.5110    3.4925 C   0  0  0  0  0  0  0  0  0  0  0  0
    2.9392   -2.0713    4.7428 C   0  0  0  0  0  0  0  0  0  0  0  0
    4.3431   -1.9766    4.4289 N   0  0  0  0  0  0  0  0  0  0  0  0
    4.9656   -0.7737    4.4299 C   0  0  0  0  0  0  0  0  0  0  0  0
    6.2030   -0.7318    3.6891 C   0  0  0  0  0  0  0  0  0  0  0  0
    7.1268   -0.5242    2.9459 C   0  0  0  0  0  0  0  0  0  0  0  0
    8.2938   -0.3242    2.0907 C   0  0  0  0  0  0  0  0  0  0  0  0
    7.9050   -0.6285    0.7075 N   0  0  0  0  0  0  0  0  0  0  0  0
    7.2858   -1.9241    0.5246 C   0  0  0  0  0  0  0  0  0  0  0  0
    8.9397   -0.4208   -0.2819 C   0  0  0  0  0  0  0  0  0  0  0  0
    8.6723    1.1617    2.2112 C   0  0  0  0  0  0  0  0  0  0  0  0
    9.4375   -1.2012    2.6429 C   0  0  0  0  0  0  0  0  0  0  0  0
    4.5054    0.2147    4.9744 O   0  0  0  0  0  0  0  0  0  0  0  0
    4.9299   -3.2117    3.9753 C   0  0  0  0  0  0  0  0  0  0  0  0
    4.2173   -3.7336    2.7297 C   0  0  0  0  0  0  0  0  0  0  0  0
    2.6485   -4.1152    0.6219 O   0  0  0  0  0  0  0  0  0  0  0  0
   -0.0944   -4.9137    2.8185 C   0  0  0  0  0  0  0  0  0  0  0  0
   -1.3390   -3.1371    0.8140 O   0  0  0  0  0  0  0  0  0  0  0  0
   -0.5891   -1.5568   -2.8843 C   0  0  0  0  0  0  0  0  0  0  0  0
    0.8071   -1.1352   -2.4123 C   0  0  0  0  0  0  0  0  0  0  0  0
    0.7782   -0.5681   -0.9934 C   0  0  0  0  0  0  0  0  0  0  0  0
    2.0987   -0.1854   -0.5316 N   0  0  0  0  0  0  0  0  0  0  0  0
    3.0367   -1.2899   -0.6990 C   0  0  0  0  0  0  0  0  0  0  0  0
    2.9848   -1.8328   -2.1260 C   0  0  0  0  0  0  0  0  0  0  0  0
    1.6853   -2.2409   -2.4881 O   0  0  0  0  0  0  0  0  0  0  0  0
   -2.8312   -3.0182   -3.6462 O   0  0  0  0  0  0  0  0  0  0  0  0
   -5.1749   -2.8643   -2.1970 C   0  0  0  0  0  0  0  0  0  0  0  0
   -5.8884   -1.5282   -1.9844 C   0  0  0  0  0  0  0  0  0  0  0  0
   -5.8658   -1.1632   -0.5010 C   0  0  0  0  0  0  0  0  0  0  0  0
   -5.1372   -1.7709    2.2717 O   0  0  0  0  0  0  0  0  0  0  0  0
    0.9493    1.3159    2.6599 C   0  0  0  0  0  0  0  0  0  0  0  0
    2.1787    1.7330    3.2114 C   0  0  0  0  0  0  0  0  0  0  0  0
    3.3660    1.5155    2.5199 C   0  0  0  0  0  0  0  0  0  0  0  0
    3.3092    0.8664    1.3075 C   0  0  0  0  0  0  0  0  0  0  0  0
    2.0942    0.4221    0.7456 C   0  0  0  0  0  0  0  0  0  0  0  0
    0.9157    0.6502    1.4373 C   0  0  0  0  0  0  0  0  0  0  0  0
    2.5198   -4.8306    3.9553 F   0  0  0  0  0  0  0  0  0  0  0  0
   -1.5091    6.7632    5.4673 H   0  0  0  0  0  0  0  0  0  0  0  0
    0.2178    6.5690    5.1430 H   0  0  0  0  0  0  0  0  0  0  0  0
   -0.8782    6.9760    3.8193 H   0  0  0  0  0  0  0  0  0  0  0  0
   -0.3027    4.5559    3.7270 H   0  0  0  0  0  0  0  0  0  0  0  0
   -3.6088    4.6006    2.5395 H   0  0  0  0  0  0  0  0  0  0  0  0
   -2.7009    6.1216    2.6852 H   0  0  0  0  0  0  0  0  0  0  0  0
   -1.8918    4.6588    2.0587 H   0  0  0  0  0  0  0  0  0  0  0  0
   -1.5998    4.5450    8.8833 H   0  0  0  0  0  0  0  0  0  0  0  0
   -0.2452    2.4534    9.1486 H   0  0  0  0  0  0  0  0  0  0  0  0
    0.7692    1.4504    7.1052 H   0  0  0  0  0  0  0  0  0  0  0  0
    2.5391    3.0442    6.2536 H   0  0  0  0  0  0  0  0  0  0  0  0
    3.8113    2.3896    5.2056 H   0  0  0  0  0  0  0  0  0  0  0  0
    3.9585    4.8782    5.3300 H   0  0  0  0  0  0  0  0  0  0  0  0
    3.5321    4.3808    3.6876 H   0  0  0  0  0  0  0  0  0  0  0  0
    2.2881    5.0184    4.7680 H   0  0  0  0  0  0  0  0  0  0  0  0
   -2.0852    2.4038    3.7297 H   0  0  0  0  0  0  0  0  0  0  0  0
   -1.7164    1.5238    2.2395 H   0  0  0  0  0  0  0  0  0  0  0  0
   -0.3590   -0.8684    3.8638 H   0  0  0  0  0  0  0  0  0  0  0  0
   -1.8208   -1.8543    4.0384 H   0  0  0  0  0  0  0  0  0  0  0  0
   -1.4087   -1.1577    2.4754 H   0  0  0  0  0  0  0  0  0  0  0  0
   -1.2449    0.4230    5.8546 H   0  0  0  0  0  0  0  0  0  0  0  0
   -2.7672    1.3026    5.7364 H   0  0  0  0  0  0  0  0  0  0  0  0
   -2.7723   -0.4588    5.8740 H   0  0  0  0  0  0  0  0  0  0  0  0
   -4.1435   -0.6662    3.9018 H   0  0  0  0  0  0  0  0  0  0  0  0
   -4.1627    1.0877    3.5806 H   0  0  0  0  0  0  0  0  0  0  0  0
   -3.8345   -0.3717   -0.3771 H   0  0  0  0  0  0  0  0  0  0  0  0
   -2.9842   -2.6906    0.1815 H   0  0  0  0  0  0  0  0  0  0  0  0
   -1.6346   -1.6191   -0.9849 H   0  0  0  0  0  0  0  0  0  0  0  0
   -0.0538   -3.8660   -1.9614 H   0  0  0  0  0  0  0  0  0  0  0  0
    1.0092   -5.0256   -0.3530 H   0  0  0  0  0  0  0  0  0  0  0  0
   -1.4371   -6.2561    1.0031 H   0  0  0  0  0  0  0  0  0  0  0  0
    0.8032   -7.3527    1.5081 H   0  0  0  0  0  0  0  0  0  0  0  0
   -0.2715   -8.3901    0.5708 H   0  0  0  0  0  0  0  0  0  0  0  0
    1.0548   -7.5391   -0.2230 H   0  0  0  0  0  0  0  0  0  0  0  0
   -1.7598   -7.4146   -1.1715 H   0  0  0  0  0  0  0  0  0  0  0  0
   -1.9991   -5.6788   -1.3179 H   0  0  0  0  0  0  0  0  0  0  0  0
   -0.5006   -6.4194   -1.8949 H   0  0  0  0  0  0  0  0  0  0  0  0
    2.2946   -1.7647    2.7047 H   0  0  0  0  0  0  0  0  0  0  0  0
    1.1076   -2.5847    3.7241 H   0  0  0  0  0  0  0  0  0  0  0  0
    2.5995   -1.0873    5.0714 H   0  0  0  0  0  0  0  0  0  0  0  0
    2.7875   -2.7982    5.5488 H   0  0  0  0  0  0  0  0  0  0  0  0
    6.5004   -2.0632    1.2636 H   0  0  0  0  0  0  0  0  0  0  0  0
    6.8341   -1.9518   -0.4676 H   0  0  0  0  0  0  0  0  0  0  0  0
    7.9956   -2.7628    0.5971 H   0  0  0  0  0  0  0  0  0  0  0  0
    9.3628    0.5750   -0.1870 H   0  0  0  0  0  0  0  0  0  0  0  0
    9.7511   -1.1630   -0.2277 H   0  0  0  0  0  0  0  0  0  0  0  0
    8.4804   -0.4992   -1.2677 H   0  0  0  0  0  0  0  0  0  0  0  0
    8.6456    1.4599    3.2567 H   0  0  0  0  0  0  0  0  0  0  0  0
    9.6733    1.3459    1.8299 H   0  0  0  0  0  0  0  0  0  0  0  0
    7.9579    1.7654    1.6577 H   0  0  0  0  0  0  0  0  0  0  0  0
    9.6348   -0.9349    3.6782 H   0  0  0  0  0  0  0  0  0  0  0  0
    9.1693   -2.2547    2.6037 H   0  0  0  0  0  0  0  0  0  0  0  0
   10.3446   -1.0435    2.0643 H   0  0  0  0  0  0  0  0  0  0  0  0
    5.9896   -3.0549    3.7672 H   0  0  0  0  0  0  0  0  0  0  0  0
    4.8344   -3.9516    4.7805 H   0  0  0  0  0  0  0  0  0  0  0  0
    4.6121   -4.7122    2.4543 H   0  0  0  0  0  0  0  0  0  0  0  0
    4.3687   -3.0550    1.8907 H   0  0  0  0  0  0  0  0  0  0  0  0
    0.3809   -4.5625    3.7248 H   0  0  0  0  0  0  0  0  0  0  0  0
   -1.0146   -4.3514    2.6591 H   0  0  0  0  0  0  0  0  0  0  0  0
   -0.3331   -5.9694    2.9568 H   0  0  0  0  0  0  0  0  0  0  0  0
   -0.4824   -2.2124   -3.7503 H   0  0  0  0  0  0  0  0  0  0  0  0
   -1.1405   -0.6710   -3.2022 H   0  0  0  0  0  0  0  0  0  0  0  0
    1.1843   -0.3504   -3.0919 H   0  0  0  0  0  0  0  0  0  0  0  0
    0.1415    0.3195   -0.9998 H   0  0  0  0  0  0  0  0  0  0  0  0
    0.3591   -1.3253   -0.3147 H   0  0  0  0  0  0  0  0  0  0  0  0
    4.0497   -0.9466   -0.4914 H   0  0  0  0  0  0  0  0  0  0  0  0
    2.7950   -2.1190   -0.0191 H   0  0  0  0  0  0  0  0  0  0  0  0
    3.3363   -1.0647   -2.8323 H   0  0  0  0  0  0  0  0  0  0  0  0
    3.6149   -2.7198   -2.2019 H   0  0  0  0  0  0  0  0  0  0  0  0
   -5.0900   -3.1140   -3.2544 H   0  0  0  0  0  0  0  0  0  0  0  0
   -5.6951   -3.6616   -1.6611 H   0  0  0  0  0  0  0  0  0  0  0  0
   -5.3787   -0.7561   -2.5658 H   0  0  0  0  0  0  0  0  0  0  0  0
   -6.9174   -1.5980   -2.3368 H   0  0  0  0  0  0  0  0  0  0  0  0
   -6.4471   -1.8907    0.0676 H   0  0  0  0  0  0  0  0  0  0  0  0
   -6.2950   -0.1729   -0.3429 H   0  0  0  0  0  0  0  0  0  0  0  0
    4.3154    1.8393    2.9157 H   0  0  0  0  0  0  0  0  0  0  0  0
    4.2288    0.7131    0.7643 H   0  0  0  0  0  0  0  0  0  0  0  0
   -0.0449    0.3360    1.0703 H   0  0  0  0  0  0  0  0  0  0  0  0
  1  2  1  0  0  0  0
  2  3  1  0  0  0  0
  3  4  1  0  0  0  0
  2  5  1  0  0  0  0
  5  6  4  0  0  0  0
  6  7  4  0  0  0  0
  7  8  4  0  0  0  0
  8  9  4  0  0  0  0
  5 10  4  0  0  0  0
  9 10  4  0  0  0  0
 10 11  1  0  0  0  0
 11 12  1  0  0  0  0
 12 13  1  0  0  0  0
 13 14  1  0  0  0  0
 11 15  2  0  0  0  0
 15 16  1  0  0  0  0
 16 17  1  0  0  0  0
 17 18  1  0  0  0  0
 17 19  1  0  0  0  0
 17 20  1  0  0  0  0
 20 21  1  0  0  0  0
 21 22  1  0  0  0  0
 22 23  1  0  0  0  0
 23 24  1  0  0  0  0
 24 25  1  0  0  0  0
 25 26  4  0  0  0  0
 26 27  1  0  0  0  0
 27 28  1  0  0  0  0
 28 29  4  0  0  0  0
 29 30  1  0  0  0  0
 30 31  1  0  0  0  0
 31 32  1  0  0  0  0
 31 33  1  0  0  0  0
 30 34  1  0  0  0  0
 34 35  4  0  0  0  0
 35 36  1  0  0  0  0
 36 37  1  0  0  0  0
 37 38  1  0  0  0  0
 38 39  1  0  0  0  0
 39 40  4  0  0  0  0
 40 41  1  0  0  0  0
 41 42  3  0  0  0  0
 42 43  1  0  0  0  0
 43 44  1  0  0  0  0
 44 45  1  0  0  0  0
 44 46  1  0  0  0  0
 43 47  1  0  0  0  0
 43 48  1  0  0  0  0
 40 49  2  0  0  0  0
 39 50  1  0  0  0  0
 36 51  1  0  0  0  0
 50 51  1  0  0  0  0
 35 52  2  0  0  0  0
 34 53  1  0  0  0  0
 29 54  2  0  0  0  0
 27 55  1  0  0  0  0
 55 56  1  0  0  0  0
 56 57  1  0  0  0  0
 57 58  1  0  0  0  0
 58 59  1  0  0  0  0
 59 60  1  0  0  0  0
 56 61  1  0  0  0  0
 60 61  1  0  0  0  0
 26 62  2  0  0  0  0
 25 63  1  0  0  0  0
 63 64  1  0  0  0  0
 23 65  1  0  0  0  0
 64 65  1  0  0  0  0
 22 66  2  0  0  0  0
 15 67  4  0  0  0  0
 12 68  1  0  0  0  0
 67 68  4  0  0  0  0
 68 69  4  0  0  0  0
 69 70  2  0  0  0  0
 58 71  1  0  0  0  0
 70 71  4  0  0  0  0
 67 72  4  0  0  0  0
 71 72  4  0  0  0  0
 36 73  1  0  0  0  0
  1 74  1  0  0  0  0
  1 75  1  0  0  0  0
  1 76  1  0  0  0  0
  2 77  1  0  0  0  0
  4 78  1  0  0  0  0
  4 79  1  0  0  0  0
  4 80  1  0  0  0  0
  7 81  1  0  0  0  0
  8 82  1  0  0  0  0
  9 83  1  0  0  0  0
 13 84  1  0  0  0  0
 13 85  1  0  0  0  0
 14 86  1  0  0  0  0
 14 87  1  0  0  0  0
 14 88  1  0  0  0  0
 16 89  1  0  0  0  0
 16 90  1  0  0  0  0
 18 91  1  0  0  0  0
 18 92  1  0  0  0  0
 18 93  1  0  0  0  0
 19 94  1  0  0  0  0
 19 95  1  0  0  0  0
 19 96  1  0  0  0  0
 20 97  1  0  0  0  0
 20 98  1  0  0  0  0
 23 99  1  0  0  0  0
 24100  1  0  0  0  0
 27101  1  0  0  0  0
 28102  1  0  0  0  0
 30103  1  0  0  0  0
 31104  1  0  0  0  0
 32105  1  0  0  0  0
 32106  1  0  0  0  0
 32107  1  0  0  0  0
 33108  1  0  0  0  0
 33109  1  0  0  0  0
 33110  1  0  0  0  0
 37111  1  0  0  0  0
 37112  1  0  0  0  0
 38113  1  0  0  0  0
 38114  1  0  0  0  0
 45115  1  0  0  0  0
 45116  1  0  0  0  0
 45117  1  0  0  0  0
 46118  1  0  0  0  0
 46119  1  0  0  0  0
 46120  1  0  0  0  0
 47121  1  0  0  0  0
 47122  1  0  0  0  0
 47123  1  0  0  0  0
 48124  1  0  0  0  0
 48125  1  0  0  0  0
 48126  1  0  0  0  0
 50127  1  0  0  0  0
 50128  1  0  0  0  0
 51129  1  0  0  0  0
 51130  1  0  0  0  0
 53131  1  0  0  0  0
 53132  1  0  0  0  0
 53133  1  0  0  0  0
 55134  1  0  0  0  0
 55135  1  0  0  0  0
 56136  1  0  0  0  0
 57137  1  0  0  0  0
 57138  1  0  0  0  0
 59139  1  0  0  0  0
 59140  1  0  0  0  0
 60141  1  0  0  0  0
 60142  1  0  0  0  0
 63143  1  0  0  0  0
 63144  1  0  0  0  0
 64145  1  0  0  0  0
 64146  1  0  0  0  0
 65147  1  0  0  0  0
 65148  1  0  0  0  0
 69149  1  0  0  0  0
 70150  1  0  0  0  0
 72151  1  0  0  0  0
M  END
$$$$
