mol_ETKDG0_153
  PyMOL3.1          3D                             0

 73 79  0  0  0  0  0  0  0  0999 V2000
   -0.0605   14.7713  -13.6387 C   0  0  0  0  0  0  0  0  0  0  0  0
   -0.2394   14.3182  -12.2055 C   0  0  0  0  0  0  0  0  0  0  0  0
   -0.8039   15.3071  -11.4082 O   0  0  0  0  0  0  0  0  0  0  0  0
   -2.2328   15.3840  -11.3566 C   0  0  0  0  0  0  0  0  0  0  0  0
    1.0514   13.9145  -11.5808 C   0  0  0  0  0  0  0  0  0  0  0  0
    2.1745   14.4921  -11.9921 N   0  0  0  0  0  0  0  0  0  0  0  0
    3.3573   14.1435  -11.4454 C   0  0  0  0  0  0  0  0  0  0  0  0
    3.4347   13.1599  -10.4610 C   0  0  0  0  0  0  0  0  0  0  0  0
    2.2841   12.5587  -10.0514 C   0  0  0  0  0  0  0  0  0  0  0  0
    1.0947   12.9398  -10.6052 C   0  0  0  0  0  0  0  0  0  0  0  0
   -0.1262   12.3475  -10.1459 C   0  0  0  0  0  0  0  0  0  0  0  0
   -0.7641   11.3347  -10.7853 N   0  0  0  0  0  0  0  0  0  0  0  0
   -0.3086   10.5937  -11.9758 C   0  0  0  0  0  0  0  0  0  0  0  0
    0.3393    9.2769  -11.5518 C   0  0  0  0  0  0  0  0  0  0  0  0
   -0.8846   12.7658   -9.0527 C   0  0  0  0  0  0  0  0  0  0  0  0
   -0.6277   13.8358   -8.0297 C   0  0  0  0  0  0  0  0  0  0  0  0
    0.0103   13.3622   -6.6877 C   0  0  0  0  0  0  0  0  0  0  0  0
   -0.7042   14.0729   -5.5394 C   0  0  0  0  0  0  0  0  0  0  0  0
    1.5050   13.7439   -6.6454 C   0  0  0  0  0  0  0  0  0  0  0  0
   -0.0043   11.9374   -6.4592 C   0  0  0  0  0  0  0  0  0  0  0  0
   -0.6637   11.4175   -5.2676 O   0  0  0  0  0  0  0  0  0  0  0  0
   -0.9880   10.0507   -5.1077 C   0  0  0  0  0  0  0  0  0  0  0  0
   -1.6956    9.7433   -3.8274 C   0  0  0  0  0  0  0  0  0  0  0  0
   -2.4122    8.4844   -3.9991 N   0  0  0  0  0  0  0  0  0  0  0  0
   -3.0924    8.0707   -2.8786 N   0  0  0  0  0  0  0  0  0  0  0  0
   -4.4586    7.9952   -2.8748 C   0  0  0  0  0  0  0  0  0  0  0  0
   -5.1690    8.3062   -4.1668 C   0  0  0  0  0  0  0  0  0  0  0  0
   -6.3490    7.4954   -4.3708 N   0  0  0  0  0  0  0  0  0  0  0  0
   -6.4230    6.5269   -5.2846 C   0  0  0  0  0  0  0  0  0  0  0  0
   -7.7923    5.9360   -5.4252 C   0  0  0  0  0  0  0  0  0  0  0  0
   -7.8557    4.4236   -5.0460 C   0  0  0  0  0  0  0  0  0  0  0  0
   -9.2592    3.8807   -5.2792 C   0  0  0  0  0  0  0  0  0  0  0  0
   -7.4904    4.2427   -3.5654 C   0  0  0  0  0  0  0  0  0  0  0  0
   -8.2650    6.1523   -6.7712 N   0  0  0  0  0  0  0  0  0  0  0  0
   -9.2614    7.0611   -6.9575 C   0  0  0  0  0  0  0  0  0  0  0  0
   -9.9867    7.1172   -8.2770 C   0  0  0  0  0  0  0  0  0  0  0  0
  -11.2518    7.9736   -8.1915 C   0  0  0  0  0  0  0  0  0  0  0  0
  -12.0535    7.8544   -9.4411 C   0  0  0  0  0  0  0  0  0  0  0  0
  -12.2539    6.4344   -9.7829 N   0  0  0  0  0  0  0  0  0  0  0  0
  -13.4368    5.7982   -9.9346 C   0  0  0  0  0  0  0  0  0  0  0  0
  -14.6173    6.4614   -9.6507 C   0  0  0  0  0  0  0  0  0  0  0  0
  -15.6648    6.9049   -9.4665 C   0  0  0  0  0  0  0  0  0  0  0  0
  -16.9286    7.5021   -9.1580 C   0  0  0  0  0  0  0  0  0  0  0  0
  -16.8028    8.4503   -8.0404 N   0  0  0  0  0  0  0  0  0  0  0  0
  -16.1543    7.8826   -6.8434 C   0  0  0  0  0  0  0  0  0  0  0  0
  -16.2459    9.7636   -8.3993 C   0  0  0  0  0  0  0  0  0  0  0  0
  -17.9174    6.3958   -8.7451 C   0  0  0  0  0  0  0  0  0  0  0  0
  -17.4344    8.2337  -10.4081 C   0  0  0  0  0  0  0  0  0  0  0  0
  -13.4683    4.6237  -10.3037 O   0  0  0  0  0  0  0  0  0  0  0  0
  -11.0964    5.6223   -9.8951 C   0  0  0  0  0  0  0  0  0  0  0  0
  -10.4377    5.7013   -8.5785 C   0  0  0  0  0  0  0  0  0  0  0  0
   -9.6041    7.8200   -6.0359 O   0  0  0  0  0  0  0  0  0  0  0  0
   -7.6109    5.3698   -7.8547 C   0  0  0  0  0  0  0  0  0  0  0  0
   -5.4691    6.1820   -5.9694 O   0  0  0  0  0  0  0  0  0  0  0  0
   -5.6135    9.8007   -4.1065 C   0  0  0  0  0  0  0  0  0  0  0  0
   -6.0602   10.2905   -5.4659 C   0  0  0  0  0  0  0  0  0  0  0  0
   -4.8378   10.5072   -6.3100 C   0  0  0  0  0  0  0  0  0  0  0  0
   -5.2194   11.0840   -7.6065 N   0  0  0  0  0  0  0  0  0  0  0  0
   -6.0349   12.3692   -7.3877 C   0  0  0  0  0  0  0  0  0  0  0  0
   -7.2390   12.0695   -6.5536 C   0  0  0  0  0  0  0  0  0  0  0  0
   -6.8152   11.4971   -5.3030 O   0  0  0  0  0  0  0  0  0  0  0  0
   -5.0997    7.7605   -1.8710 O   0  0  0  0  0  0  0  0  0  0  0  0
   -2.2513    7.8521   -1.6912 C   0  0  0  0  0  0  0  0  0  0  0  0
   -1.4753    9.1446   -1.4062 C   0  0  0  0  0  0  0  0  0  0  0  0
   -0.7247    9.6126   -2.6478 C   0  0  0  0  0  0  0  0  0  0  0  0
   -0.7725    9.1069   -5.9040 O   0  0  0  0  0  0  0  0  0  0  0  0
   -1.9929   11.9581   -9.0747 C   0  0  0  0  0  0  0  0  0  0  0  0
   -1.8934   11.0733  -10.1426 C   0  0  0  0  0  0  0  0  0  0  0  0
   -2.9281   10.1337  -10.3676 C   0  0  0  0  0  0  0  0  0  0  0  0
   -4.0186   10.1416   -9.4963 C   0  0  0  0  0  0  0  0  0  0  0  0
   -4.1006   11.0810   -8.4485 C   0  0  0  0  0  0  0  0  0  0  0  0
   -3.0438   11.9662   -8.2428 C   0  0  0  0  0  0  0  0  0  0  0  0
   -9.1400    7.6142   -9.2600 F   0  0  0  0  0  0  0  0  0  0  0  0
  1  2  1  0  0  0  0
  2  3  1  0  0  0  0
  2  5  1  0  0  0  0
  3  4  1  0  0  0  0
  5  6  4  0  0  0  0
  5 10  4  0  0  0  0
  6  7  4  0  0  0  0
  7  8  4  0  0  0  0
  8  9  4  0  0  0  0
  9 10  4  0  0  0  0
 10 11  1  0  0  0  0
 11 12  4  0  0  0  0
 11 15  4  0  0  0  0
 12 13  1  0  0  0  0
 12 68  4  0  0  0  0
 13 14  1  0  0  0  0
 15 16  1  0  0  0  0
 15 67  4  0  0  0  0
 16 17  1  0  0  0  0
 17 18  1  0  0  0  0
 17 19  1  0  0  0  0
 17 20  1  0  0  0  0
 20 21  1  0  0  0  0
 21 22  1  0  0  0  0
 22 23  1  0  0  0  0
 22 66  2  0  0  0  0
 23 24  1  0  0  0  0
 23 65  1  0  0  0  0
 24 25  1  0  0  0  0
 25 26  1  0  0  0  0
 25 63  1  0  0  0  0
 26 27  1  0  0  0  0
 26 62  2  0  0  0  0
 27 28  1  0  0  0  0
 27 55  1  0  0  0  0
 28 29  1  0  0  0  0
 29 30  1  0  0  0  0
 29 54  2  0  0  0  0
 30 31  1  0  0  0  0
 30 34  1  0  0  0  0
 31 32  1  0  0  0  0
 31 33  1  0  0  0  0
 34 35  1  0  0  0  0
 34 53  1  0  0  0  0
 35 36  1  0  0  0  0
 35 52  2  0  0  0  0
 36 37  1  0  0  0  0
 36 51  1  0  0  0  0
 36 73  1  0  0  0  0
 37 38  1  0  0  0  0
 38 39  1  0  0  0  0
 39 40  1  0  0  0  0
 39 50  1  0  0  0  0
 40 41  1  0  0  0  0
 40 49  2  0  0  0  0
 41 42  1  0  0  0  0
 42 43  1  0  0  0  0
 43 44  1  0  0  0  0
 43 47  1  0  0  0  0
 43 48  1  0  0  0  0
 44 45  1  0  0  0  0
 44 46  1  0  0  0  0
 50 51  1  0  0  0  0
 55 56  1  0  0  0  0
 56 57  1  0  0  0  0
 56 61  1  0  0  0  0
 57 58  1  0  0  0  0
 58 59  1  0  0  0  0
 58 71  1  0  0  0  0
 59 60  1  0  0  0  0
 60 61  1  0  0  0  0
 63 64  1  0  0  0  0
 64 65  1  0  0  0  0
 67 68  4  0  0  0  0
 67 72  4  0  0  0  0
 68 69  4  0  0  0  0
 69 70  4  0  0  0  0
 70 71  4  0  0  0  0
 71 72  4  0  0  0  0
M  END
$$$$
