mol_bioactive_3
  PyMOL3.1          3D                             0

 73 79  0  0  0  0  0  0  0  0999 V2000
   -0.2270   14.7661  -13.4187 C   0  0  0  0  0  0  0  0  0  0  0  0
   -0.2444   14.7110  -11.8951 C   0  0  0  0  0  0  0  0  0  0  0  0
   -0.4803   15.9444  -11.2795 O   0  0  0  0  0  0  0  0  0  0  0  0
   -1.8233   16.2899  -10.9630 C   0  0  0  0  0  0  0  0  0  0  0  0
    1.0369   14.1989  -11.3605 C   0  0  0  0  0  0  0  0  0  0  0  0
    2.1576   14.8115  -11.7234 N   0  0  0  0  0  0  0  0  0  0  0  0
    3.3477   14.3824  -11.2655 C   0  0  0  0  0  0  0  0  0  0  0  0
    3.4288   13.2730  -10.4153 C   0  0  0  0  0  0  0  0  0  0  0  0
    2.2791   12.6324  -10.0548 C   0  0  0  0  0  0  0  0  0  0  0  0
    1.0792   13.0961  -10.5240 C   0  0  0  0  0  0  0  0  0  0  0  0
   -0.1430   12.4484  -10.1153 C   0  0  0  0  0  0  0  0  0  0  0  0
   -0.7097   11.4168  -10.7945 N   0  0  0  0  0  0  0  0  0  0  0  0
   -0.1951   10.7347  -11.9924 C   0  0  0  0  0  0  0  0  0  0  0  0
    0.4243    9.3886  -11.6102 C   0  0  0  0  0  0  0  0  0  0  0  0
   -0.9536   12.8099   -9.0511 C   0  0  0  0  0  0  0  0  0  0  0  0
   -0.7800   13.8708   -8.0199 C   0  0  0  0  0  0  0  0  0  0  0  0
   -0.1036   13.4226   -6.6833 C   0  0  0  0  0  0  0  0  0  0  0  0
   -0.8161   14.1287   -5.5306 C   0  0  0  0  0  0  0  0  0  0  0  0
    1.3829   13.8473   -6.6759 C   0  0  0  0  0  0  0  0  0  0  0  0
   -0.0953   12.0020   -6.4563 C   0  0  0  0  0  0  0  0  0  0  0  0
   -0.7759   11.4603   -5.2839 O   0  0  0  0  0  0  0  0  0  0  0  0
   -1.0169   10.0815   -5.1079 C   0  0  0  0  0  0  0  0  0  0  0  0
   -1.7497    9.7549   -3.8406 C   0  0  0  0  0  0  0  0  0  0  0  0
   -2.4489    8.4905   -4.0337 N   0  0  0  0  0  0  0  0  0  0  0  0
   -3.1437    8.0510   -2.9276 N   0  0  0  0  0  0  0  0  0  0  0  0
   -4.5137    7.9625   -2.9403 C   0  0  0  0  0  0  0  0  0  0  0  0
   -5.2284    8.3329   -4.2261 C   0  0  0  0  0  0  0  0  0  0  0  0
   -6.4170    7.5147   -4.4701 N   0  0  0  0  0  0  0  0  0  0  0  0
   -6.4757    6.4860   -5.3412 C   0  0  0  0  0  0  0  0  0  0  0  0
   -7.8408    5.8857   -5.5131 C   0  0  0  0  0  0  0  0  0  0  0  0
   -7.9349    4.3854   -5.1162 C   0  0  0  0  0  0  0  0  0  0  0  0
   -9.3506    3.8711   -5.3690 C   0  0  0  0  0  0  0  0  0  0  0  0
   -7.5791    4.2124   -3.6353 C   0  0  0  0  0  0  0  0  0  0  0  0
   -8.2729    6.0835   -6.8796 N   0  0  0  0  0  0  0  0  0  0  0  0
   -9.1883    7.0578   -7.1347 C   0  0  0  0  0  0  0  0  0  0  0  0
   -9.7899    7.1780   -8.5170 C   0  0  0  0  0  0  0  0  0  0  0  0
  -10.7105    8.3739   -8.6694 C   0  0  0  0  0  0  0  0  0  0  0  0
  -11.2832    8.3696  -10.0379 C   0  0  0  0  0  0  0  0  0  0  0  0
  -11.9186    7.0672  -10.3112 N   0  0  0  0  0  0  0  0  0  0  0  0
  -13.1922    6.9234  -10.7096 C   0  0  0  0  0  0  0  0  0  0  0  0
  -13.9716    8.0685  -10.8528 C   0  0  0  0  0  0  0  0  0  0  0  0
  -14.7034    8.9286  -11.0062 C   0  0  0  0  0  0  0  0  0  0  0  0
  -15.5396   10.0924  -11.1069 C   0  0  0  0  0  0  0  0  0  0  0  0
  -15.7310   10.6715   -9.7597 N   0  0  0  0  0  0  0  0  0  0  0  0
  -16.2647    9.6985   -8.7815 C   0  0  0  0  0  0  0  0  0  0  0  0
  -14.5375   11.3599   -9.2354 C   0  0  0  0  0  0  0  0  0  0  0  0
  -14.8727   11.1259  -12.0325 C   0  0  0  0  0  0  0  0  0  0  0  0
  -16.8830    9.6591  -11.6901 C   0  0  0  0  0  0  0  0  0  0  0  0
  -13.6538    5.8158  -10.9317 O   0  0  0  0  0  0  0  0  0  0  0  0
  -11.1363    5.8748  -10.1189 C   0  0  0  0  0  0  0  0  0  0  0  0
  -10.6093    5.9157   -8.7368 C   0  0  0  0  0  0  0  0  0  0  0  0
   -9.5544    7.8236   -6.2280 O   0  0  0  0  0  0  0  0  0  0  0  0
   -7.6566    5.2096   -7.9203 C   0  0  0  0  0  0  0  0  0  0  0  0
   -5.5004    6.1131   -5.9843 O   0  0  0  0  0  0  0  0  0  0  0  0
   -5.6411    9.8262   -4.0985 C   0  0  0  0  0  0  0  0  0  0  0  0
   -5.7670   10.6279   -5.3784 C   0  0  0  0  0  0  0  0  0  0  0  0
   -5.0490   10.0547   -6.5897 C   0  0  0  0  0  0  0  0  0  0  0  0
   -5.3253   10.8346   -7.8000 N   0  0  0  0  0  0  0  0  0  0  0  0
   -6.1829   12.0621   -7.6112 C   0  0  0  0  0  0  0  0  0  0  0  0
   -7.3649   11.7621   -6.7693 C   0  0  0  0  0  0  0  0  0  0  0  0
   -7.1454   10.8144   -5.7092 O   0  0  0  0  0  0  0  0  0  0  0  0
   -5.1573    7.6950   -1.9494 O   0  0  0  0  0  0  0  0  0  0  0  0
   -2.3240    7.8382   -1.7324 C   0  0  0  0  0  0  0  0  0  0  0  0
   -1.5518    9.1582   -1.4241 C   0  0  0  0  0  0  0  0  0  0  0  0
   -0.7999    9.6316   -2.6478 C   0  0  0  0  0  0  0  0  0  0  0  0
   -0.7132    9.1374   -5.8804 O   0  0  0  0  0  0  0  0  0  0  0  0
   -2.0277   11.9477   -9.1142 C   0  0  0  0  0  0  0  0  0  0  0  0
   -1.8496   11.0857  -10.1883 C   0  0  0  0  0  0  0  0  0  0  0  0
   -2.8361   10.0918  -10.4573 C   0  0  0  0  0  0  0  0  0  0  0  0
   -3.9529   10.0210   -9.6250 C   0  0  0  0  0  0  0  0  0  0  0  0
   -4.1316   10.9354   -8.5694 C   0  0  0  0  0  0  0  0  0  0  0  0
   -3.1294   11.8897   -8.3132 C   0  0  0  0  0  0  0  0  0  0  0  0
   -8.7734    7.3106   -9.4559 F   0  0  0  0  0  0  0  0  0  0  0  0
  1  2  1  0  0  0  0
  2  3  1  0  0  0  0
  2  5  1  0  0  0  0
  3  4  1  0  0  0  0
  5  6  4  0  0  0  0
  5 10  4  0  0  0  0
  6  7  4  0  0  0  0
  7  8  4  0  0  0  0
  8  9  4  0  0  0  0
  9 10  4  0  0  0  0
 10 11  1  0  0  0  0
 11 12  4  0  0  0  0
 11 15  4  0  0  0  0
 12 13  1  0  0  0  0
 12 68  4  0  0  0  0
 13 14  1  0  0  0  0
 15 16  1  0  0  0  0
 15 67  4  0  0  0  0
 16 17  1  0  0  0  0
 17 18  1  0  0  0  0
 17 19  1  0  0  0  0
 17 20  1  0  0  0  0
 20 21  1  0  0  0  0
 21 22  1  0  0  0  0
 22 23  1  0  0  0  0
 22 66  2  0  0  0  0
 23 24  1  0  0  0  0
 23 65  1  0  0  0  0
 24 25  1  0  0  0  0
 25 26  1  0  0  0  0
 25 63  1  0  0  0  0
 26 27  1  0  0  0  0
 26 62  2  0  0  0  0
 27 28  1  0  0  0  0
 27 55  1  0  0  0  0
 28 29  1  0  0  0  0
 29 30  1  0  0  0  0
 29 54  2  0  0  0  0
 30 31  1  0  0  0  0
 30 34  1  0  0  0  0
 31 32  1  0  0  0  0
 31 33  1  0  0  0  0
 34 35  1  0  0  0  0
 34 53  1  0  0  0  0
 35 36  1  0  0  0  0
 35 52  2  0  0  0  0
 36 37  1  0  0  0  0
 36 51  1  0  0  0  0
 36 73  1  0  0  0  0
 37 38  1  0  0  0  0
 38 39  1  0  0  0  0
 39 40  1  0  0  0  0
 39 50  1  0  0  0  0
 40 41  1  0  0  0  0
 40 49  2  0  0  0  0
 41 42  1  0  0  0  0
 42 43  1  0  0  0  0
 43 44  1  0  0  0  0
 43 47  1  0  0  0  0
 43 48  1  0  0  0  0
 44 45  1  0  0  0  0
 44 46  1  0  0  0  0
 50 51  1  0  0  0  0
 55 56  1  0  0  0  0
 56 57  1  0  0  0  0
 56 61  1  0  0  0  0
 57 58  1  0  0  0  0
 58 59  1  0  0  0  0
 58 71  1  0  0  0  0
 59 60  1  0  0  0  0
 60 61  1  0  0  0  0
 63 64  1  0  0  0  0
 64 65  1  0  0  0  0
 67 68  4  0  0  0  0
 67 72  4  0  0  0  0
 68 69  4  0  0  0  0
 69 70  4  0  0  0  0
 70 71  4  0  0  0  0
 71 72  4  0  0  0  0
M  END
$$$$
