mol_ETKDG5_137
  PyMOL3.1          3D                             0

 73 79  0  0  0  0  0  0  0  0999 V2000
   -0.7102   15.0044  -13.5204 C   0  0  0  0  0  0  0  0  0  0  0  0
   -0.5146   14.8897  -12.0137 C   0  0  0  0  0  0  0  0  0  0  0  0
   -0.5207   16.1246  -11.3384 O   0  0  0  0  0  0  0  0  0  0  0  0
   -1.7410   16.5881  -10.7947 C   0  0  0  0  0  0  0  0  0  0  0  0
    0.7510   14.2230  -11.6663 C   0  0  0  0  0  0  0  0  0  0  0  0
    1.8803   14.7340  -12.1344 N   0  0  0  0  0  0  0  0  0  0  0  0
    3.0579   14.1532  -11.8376 C   0  0  0  0  0  0  0  0  0  0  0  0
    3.1172   12.9960  -11.0550 C   0  0  0  0  0  0  0  0  0  0  0  0
    1.9513   12.4653  -10.5902 C   0  0  0  0  0  0  0  0  0  0  0  0
    0.7688   13.0859  -10.8958 C   0  0  0  0  0  0  0  0  0  0  0  0
   -0.4602   12.5352  -10.3857 C   0  0  0  0  0  0  0  0  0  0  0  0
   -1.2059   11.6228  -11.0560 N   0  0  0  0  0  0  0  0  0  0  0  0
   -0.9256   11.0258  -12.3670 C   0  0  0  0  0  0  0  0  0  0  0  0
   -0.3261    9.6285  -12.1956 C   0  0  0  0  0  0  0  0  0  0  0  0
   -1.0954   12.8868   -9.1982 C   0  0  0  0  0  0  0  0  0  0  0  0
   -0.7192   13.8622   -8.1246 C   0  0  0  0  0  0  0  0  0  0  0  0
    0.0607   13.2743   -6.8954 C   0  0  0  0  0  0  0  0  0  0  0  0
   -0.3686   14.0474   -5.6417 C   0  0  0  0  0  0  0  0  0  0  0  0
    1.5866   13.4847   -7.0830 C   0  0  0  0  0  0  0  0  0  0  0  0
   -0.1139   11.8715   -6.6921 C   0  0  0  0  0  0  0  0  0  0  0  0
   -0.7286   11.3883   -5.4406 O   0  0  0  0  0  0  0  0  0  0  0  0
   -0.9739   10.0216   -5.1979 C   0  0  0  0  0  0  0  0  0  0  0  0
   -1.6668    9.7436   -3.8981 C   0  0  0  0  0  0  0  0  0  0  0  0
   -2.3812    8.4877   -4.0497 N   0  0  0  0  0  0  0  0  0  0  0  0
   -3.0494    8.0732   -2.9152 N   0  0  0  0  0  0  0  0  0  0  0  0
   -4.4140    7.9903   -2.8922 C   0  0  0  0  0  0  0  0  0  0  0  0
   -5.1355    8.3346   -4.1648 C   0  0  0  0  0  0  0  0  0  0  0  0
   -6.3255    7.5336   -4.3754 N   0  0  0  0  0  0  0  0  0  0  0  0
   -6.4124    6.5782   -5.3062 C   0  0  0  0  0  0  0  0  0  0  0  0
   -7.7863    6.0084   -5.4781 C   0  0  0  0  0  0  0  0  0  0  0  0
   -7.8908    4.4912   -5.1227 C   0  0  0  0  0  0  0  0  0  0  0  0
   -9.3016    3.9844   -5.3941 C   0  0  0  0  0  0  0  0  0  0  0  0
   -7.5383    4.2752   -3.6422 C   0  0  0  0  0  0  0  0  0  0  0  0
   -8.2060    6.2540   -6.8407 N   0  0  0  0  0  0  0  0  0  0  0  0
   -9.0957    7.2512   -7.0805 C   0  0  0  0  0  0  0  0  0  0  0  0
   -9.6762    7.4069   -8.4659 C   0  0  0  0  0  0  0  0  0  0  0  0
  -10.6023    8.5927   -8.6160 C   0  0  0  0  0  0  0  0  0  0  0  0
  -11.1165    8.6187  -10.0017 C   0  0  0  0  0  0  0  0  0  0  0  0
  -11.7283    7.3243  -10.3432 N   0  0  0  0  0  0  0  0  0  0  0  0
  -12.9708    7.1929  -10.8245 C   0  0  0  0  0  0  0  0  0  0  0  0
  -13.7571    8.3259  -10.8798 C   0  0  0  0  0  0  0  0  0  0  0  0
  -14.4968    9.1691  -10.9728 C   0  0  0  0  0  0  0  0  0  0  0  0
  -15.3523   10.3184  -10.9339 C   0  0  0  0  0  0  0  0  0  0  0  0
  -16.6104    9.9102  -10.2935 N   0  0  0  0  0  0  0  0  0  0  0  0
  -16.4413    9.2685   -8.9858 C   0  0  0  0  0  0  0  0  0  0  0  0
  -17.6967   10.8732  -10.3270 C   0  0  0  0  0  0  0  0  0  0  0  0
  -14.6897   11.4685  -10.1200 C   0  0  0  0  0  0  0  0  0  0  0  0
  -15.5584   10.7760  -12.3722 C   0  0  0  0  0  0  0  0  0  0  0  0
  -13.4027    6.1108  -11.1787 O   0  0  0  0  0  0  0  0  0  0  0  0
  -10.9559    6.1272  -10.1431 C   0  0  0  0  0  0  0  0  0  0  0  0
  -10.4807    6.1414   -8.7473 C   0  0  0  0  0  0  0  0  0  0  0  0
   -9.4479    8.0142   -6.1687 O   0  0  0  0  0  0  0  0  0  0  0  0
   -7.5934    5.3953   -7.9026 C   0  0  0  0  0  0  0  0  0  0  0  0
   -5.4563    6.2312   -5.9996 O   0  0  0  0  0  0  0  0  0  0  0  0
   -5.5657    9.8273   -4.0469 C   0  0  0  0  0  0  0  0  0  0  0  0
   -6.0911   10.3648   -5.3575 C   0  0  0  0  0  0  0  0  0  0  0  0
   -4.9178   10.5702   -6.2847 C   0  0  0  0  0  0  0  0  0  0  0  0
   -5.3659   11.2354   -7.5152 N   0  0  0  0  0  0  0  0  0  0  0  0
   -6.1225   12.5193   -7.1886 C   0  0  0  0  0  0  0  0  0  0  0  0
   -7.2835   12.2064   -6.2970 C   0  0  0  0  0  0  0  0  0  0  0  0
   -6.7908   11.5755   -5.1045 O   0  0  0  0  0  0  0  0  0  0  0  0
   -5.0409    7.7394   -1.8900 O   0  0  0  0  0  0  0  0  0  0  0  0
   -2.2013    7.8602   -1.7455 C   0  0  0  0  0  0  0  0  0  0  0  0
   -1.4098    9.1783   -1.4703 C   0  0  0  0  0  0  0  0  0  0  0  0
   -0.6847    9.6295   -2.7259 C   0  0  0  0  0  0  0  0  0  0  0  0
   -0.7062    9.0416   -5.9472 O   0  0  0  0  0  0  0  0  0  0  0  0
   -2.2367   12.1278   -9.1864 C   0  0  0  0  0  0  0  0  0  0  0  0
   -2.2790   11.3479  -10.3304 C   0  0  0  0  0  0  0  0  0  0  0  0
   -3.3861   10.4726  -10.5384 C   0  0  0  0  0  0  0  0  0  0  0  0
   -4.3785   10.4411   -9.5800 C   0  0  0  0  0  0  0  0  0  0  0  0
   -4.3209   11.2705   -8.4455 C   0  0  0  0  0  0  0  0  0  0  0  0
   -3.2087   12.0995   -8.2597 C   0  0  0  0  0  0  0  0  0  0  0  0
   -8.6379    7.5711   -9.3756 F   0  0  0  0  0  0  0  0  0  0  0  0
  1  2  1  0  0  0  0
  2  3  1  0  0  0  0
  2  5  1  0  0  0  0
  3  4  1  0  0  0  0
  5  6  4  0  0  0  0
  5 10  4  0  0  0  0
  6  7  4  0  0  0  0
  7  8  4  0  0  0  0
  8  9  4  0  0  0  0
  9 10  4  0  0  0  0
 10 11  1  0  0  0  0
 11 12  4  0  0  0  0
 11 15  4  0  0  0  0
 12 13  1  0  0  0  0
 12 68  4  0  0  0  0
 13 14  1  0  0  0  0
 15 16  1  0  0  0  0
 15 67  4  0  0  0  0
 16 17  1  0  0  0  0
 17 18  1  0  0  0  0
 17 19  1  0  0  0  0
 17 20  1  0  0  0  0
 20 21  1  0  0  0  0
 21 22  1  0  0  0  0
 22 23  1  0  0  0  0
 22 66  2  0  0  0  0
 23 24  1  0  0  0  0
 23 65  1  0  0  0  0
 24 25  1  0  0  0  0
 25 26  1  0  0  0  0
 25 63  1  0  0  0  0
 26 27  1  0  0  0  0
 26 62  2  0  0  0  0
 27 28  1  0  0  0  0
 27 55  1  0  0  0  0
 28 29  1  0  0  0  0
 29 30  1  0  0  0  0
 29 54  2  0  0  0  0
 30 31  1  0  0  0  0
 30 34  1  0  0  0  0
 31 32  1  0  0  0  0
 31 33  1  0  0  0  0
 34 35  1  0  0  0  0
 34 53  1  0  0  0  0
 35 36  1  0  0  0  0
 35 52  2  0  0  0  0
 36 37  1  0  0  0  0
 36 51  1  0  0  0  0
 36 73  1  0  0  0  0
 37 38  1  0  0  0  0
 38 39  1  0  0  0  0
 39 40  1  0  0  0  0
 39 50  1  0  0  0  0
 40 41  1  0  0  0  0
 40 49  2  0  0  0  0
 41 42  1  0  0  0  0
 42 43  1  0  0  0  0
 43 44  1  0  0  0  0
 43 47  1  0  0  0  0
 43 48  1  0  0  0  0
 44 45  1  0  0  0  0
 44 46  1  0  0  0  0
 50 51  1  0  0  0  0
 55 56  1  0  0  0  0
 56 57  1  0  0  0  0
 56 61  1  0  0  0  0
 57 58  1  0  0  0  0
 58 59  1  0  0  0  0
 58 71  1  0  0  0  0
 59 60  1  0  0  0  0
 60 61  1  0  0  0  0
 63 64  1  0  0  0  0
 64 65  1  0  0  0  0
 67 68  4  0  0  0  0
 67 72  4  0  0  0  0
 68 69  4  0  0  0  0
 69 70  4  0  0  0  0
 70 71  4  0  0  0  0
 71 72  4  0  0  0  0
M  END
$$$$
