mol_ETKDG5_129
  PyMOL3.1          3D                             0

 73 79  0  0  0  0  0  0  0  0999 V2000
   -0.7302   16.0419  -11.9118 C   0  0  0  0  0  0  0  0  0  0  0  0
   -0.6051   14.5386  -11.9915 C   0  0  0  0  0  0  0  0  0  0  0  0
   -0.8950   14.0038  -13.2628 O   0  0  0  0  0  0  0  0  0  0  0  0
   -2.2561   13.7402  -13.5597 C   0  0  0  0  0  0  0  0  0  0  0  0
    0.7347   14.0592  -11.6172 C   0  0  0  0  0  0  0  0  0  0  0  0
    1.7918   14.6879  -12.1012 N   0  0  0  0  0  0  0  0  0  0  0  0
    3.0295   14.2556  -11.7973 C   0  0  0  0  0  0  0  0  0  0  0  0
    3.2246   13.1592  -10.9561 C   0  0  0  0  0  0  0  0  0  0  0  0
    2.1307   12.5191  -10.4600 C   0  0  0  0  0  0  0  0  0  0  0  0
    0.8870   12.9578  -10.8038 C   0  0  0  0  0  0  0  0  0  0  0  0
   -0.2838   12.2968  -10.2829 C   0  0  0  0  0  0  0  0  0  0  0  0
   -0.9091   11.2613  -10.9023 N   0  0  0  0  0  0  0  0  0  0  0  0
   -0.4999   10.5651  -12.1235 C   0  0  0  0  0  0  0  0  0  0  0  0
    0.2432    9.2770  -11.7496 C   0  0  0  0  0  0  0  0  0  0  0  0
   -0.9917   12.6743   -9.1498 C   0  0  0  0  0  0  0  0  0  0  0  0
   -0.7214   13.7237   -8.1261 C   0  0  0  0  0  0  0  0  0  0  0  0
    0.0652   13.2353   -6.8542 C   0  0  0  0  0  0  0  0  0  0  0  0
   -0.4427   14.0230   -5.6497 C   0  0  0  0  0  0  0  0  0  0  0  0
    1.5711   13.5324   -7.0286 C   0  0  0  0  0  0  0  0  0  0  0  0
   -0.0078   11.8389   -6.5808 C   0  0  0  0  0  0  0  0  0  0  0  0
   -0.6691   11.3660   -5.3430 O   0  0  0  0  0  0  0  0  0  0  0  0
   -0.9575   10.0079   -5.1159 C   0  0  0  0  0  0  0  0  0  0  0  0
   -1.6668    9.7358   -3.8255 C   0  0  0  0  0  0  0  0  0  0  0  0
   -2.3795    8.4812   -3.9785 N   0  0  0  0  0  0  0  0  0  0  0  0
   -3.0531    8.0641   -2.8462 N   0  0  0  0  0  0  0  0  0  0  0  0
   -4.4118    7.9693   -2.8295 C   0  0  0  0  0  0  0  0  0  0  0  0
   -5.1232    8.2870   -4.1057 C   0  0  0  0  0  0  0  0  0  0  0  0
   -6.3032    7.4794   -4.3056 N   0  0  0  0  0  0  0  0  0  0  0  0
   -6.3631    6.5031   -5.1997 C   0  0  0  0  0  0  0  0  0  0  0  0
   -7.7332    5.9432   -5.3983 C   0  0  0  0  0  0  0  0  0  0  0  0
   -7.8528    4.4287   -5.0517 C   0  0  0  0  0  0  0  0  0  0  0  0
   -9.2518    3.9317   -5.3749 C   0  0  0  0  0  0  0  0  0  0  0  0
   -7.5591    4.2136   -3.5611 C   0  0  0  0  0  0  0  0  0  0  0  0
   -8.1079    6.2127   -6.7583 N   0  0  0  0  0  0  0  0  0  0  0  0
   -9.0511    7.1562   -6.9939 C   0  0  0  0  0  0  0  0  0  0  0  0
   -9.5936    7.3366   -8.3877 C   0  0  0  0  0  0  0  0  0  0  0  0
  -10.8993    8.1133   -8.4106 C   0  0  0  0  0  0  0  0  0  0  0  0
  -11.4680    8.1147   -9.7863 C   0  0  0  0  0  0  0  0  0  0  0  0
  -11.5170    6.7381  -10.3099 N   0  0  0  0  0  0  0  0  0  0  0  0
  -12.6066    6.0655  -10.7311 C   0  0  0  0  0  0  0  0  0  0  0  0
  -13.8590    6.6349  -10.6051 C   0  0  0  0  0  0  0  0  0  0  0  0
  -14.9437    6.9979  -10.5839 C   0  0  0  0  0  0  0  0  0  0  0  0
  -16.2754    7.5035  -10.4581 C   0  0  0  0  0  0  0  0  0  0  0  0
  -16.2626    8.7593   -9.6897 N   0  0  0  0  0  0  0  0  0  0  0  0
  -15.7673    8.5933   -8.3139 C   0  0  0  0  0  0  0  0  0  0  0  0
  -15.5988    9.8759  -10.3920 C   0  0  0  0  0  0  0  0  0  0  0  0
  -17.1391    6.4728   -9.7218 C   0  0  0  0  0  0  0  0  0  0  0  0
  -16.8357    7.7434  -11.8529 C   0  0  0  0  0  0  0  0  0  0  0  0
  -12.5038    4.9344  -11.2039 O   0  0  0  0  0  0  0  0  0  0  0  0
  -10.3120    6.0074  -10.3154 C   0  0  0  0  0  0  0  0  0  0  0  0
   -9.9051    5.9538   -8.9131 C   0  0  0  0  0  0  0  0  0  0  0  0
   -9.4800    7.8634   -6.0728 O   0  0  0  0  0  0  0  0  0  0  0  0
   -7.3714    5.4483   -7.8079 C   0  0  0  0  0  0  0  0  0  0  0  0
   -5.3907    6.1344   -5.8499 O   0  0  0  0  0  0  0  0  0  0  0  0
   -5.5717    9.7723   -4.0455 C   0  0  0  0  0  0  0  0  0  0  0  0
   -6.0457   10.2307   -5.4044 C   0  0  0  0  0  0  0  0  0  0  0  0
   -4.8281   10.4107   -6.2707 C   0  0  0  0  0  0  0  0  0  0  0  0
   -5.2325   10.9401   -7.5669 N   0  0  0  0  0  0  0  0  0  0  0  0
   -6.0552   12.2198   -7.3840 C   0  0  0  0  0  0  0  0  0  0  0  0
   -7.2383   11.9459   -6.5246 C   0  0  0  0  0  0  0  0  0  0  0  0
   -6.7903   11.4281   -5.2631 O   0  0  0  0  0  0  0  0  0  0  0  0
   -5.0455    7.7175   -1.8319 O   0  0  0  0  0  0  0  0  0  0  0  0
   -2.2169    7.8582   -1.6724 C   0  0  0  0  0  0  0  0  0  0  0  0
   -1.4344    9.1738   -1.3992 C   0  0  0  0  0  0  0  0  0  0  0  0
   -0.6979    9.6145   -2.6508 C   0  0  0  0  0  0  0  0  0  0  0  0
   -0.7143    9.0286   -5.8693 O   0  0  0  0  0  0  0  0  0  0  0  0
   -2.0679   11.8354   -9.1307 C   0  0  0  0  0  0  0  0  0  0  0  0
   -1.9915   10.9632  -10.2029 C   0  0  0  0  0  0  0  0  0  0  0  0
   -3.0175    9.9954  -10.3831 C   0  0  0  0  0  0  0  0  0  0  0  0
   -4.0583    9.9800   -9.4774 C   0  0  0  0  0  0  0  0  0  0  0  0
   -4.1277   10.9291   -8.4298 C   0  0  0  0  0  0  0  0  0  0  0  0
   -3.0722   11.8242   -8.2640 C   0  0  0  0  0  0  0  0  0  0  0  0
   -8.6274    7.9836   -9.1465 F   0  0  0  0  0  0  0  0  0  0  0  0
  1  2  1  0  0  0  0
  2  3  1  0  0  0  0
  2  5  1  0  0  0  0
  3  4  1  0  0  0  0
  5  6  4  0  0  0  0
  5 10  4  0  0  0  0
  6  7  4  0  0  0  0
  7  8  4  0  0  0  0
  8  9  4  0  0  0  0
  9 10  4  0  0  0  0
 10 11  1  0  0  0  0
 11 12  4  0  0  0  0
 11 15  4  0  0  0  0
 12 13  1  0  0  0  0
 12 68  4  0  0  0  0
 13 14  1  0  0  0  0
 15 16  1  0  0  0  0
 15 67  4  0  0  0  0
 16 17  1  0  0  0  0
 17 18  1  0  0  0  0
 17 19  1  0  0  0  0
 17 20  1  0  0  0  0
 20 21  1  0  0  0  0
 21 22  1  0  0  0  0
 22 23  1  0  0  0  0
 22 66  2  0  0  0  0
 23 24  1  0  0  0  0
 23 65  1  0  0  0  0
 24 25  1  0  0  0  0
 25 26  1  0  0  0  0
 25 63  1  0  0  0  0
 26 27  1  0  0  0  0
 26 62  2  0  0  0  0
 27 28  1  0  0  0  0
 27 55  1  0  0  0  0
 28 29  1  0  0  0  0
 29 30  1  0  0  0  0
 29 54  2  0  0  0  0
 30 31  1  0  0  0  0
 30 34  1  0  0  0  0
 31 32  1  0  0  0  0
 31 33  1  0  0  0  0
 34 35  1  0  0  0  0
 34 53  1  0  0  0  0
 35 36  1  0  0  0  0
 35 52  2  0  0  0  0
 36 37  1  0  0  0  0
 36 51  1  0  0  0  0
 36 73  1  0  0  0  0
 37 38  1  0  0  0  0
 38 39  1  0  0  0  0
 39 40  1  0  0  0  0
 39 50  1  0  0  0  0
 40 41  1  0  0  0  0
 40 49  2  0  0  0  0
 41 42  1  0  0  0  0
 42 43  1  0  0  0  0
 43 44  1  0  0  0  0
 43 47  1  0  0  0  0
 43 48  1  0  0  0  0
 44 45  1  0  0  0  0
 44 46  1  0  0  0  0
 50 51  1  0  0  0  0
 55 56  1  0  0  0  0
 56 57  1  0  0  0  0
 56 61  1  0  0  0  0
 57 58  1  0  0  0  0
 58 59  1  0  0  0  0
 58 71  1  0  0  0  0
 59 60  1  0  0  0  0
 60 61  1  0  0  0  0
 63 64  1  0  0  0  0
 64 65  1  0  0  0  0
 67 68  4  0  0  0  0
 67 72  4  0  0  0  0
 68 69  4  0  0  0  0
 69 70  4  0  0  0  0
 70 71  4  0  0  0  0
 71 72  4  0  0  0  0
M  END
$$$$
