mol_ETKDG4_107
  PyMOL3.1          3D                             0

 73 79  0  0  0  0  0  0  0  0999 V2000
   -0.3221   16.2504  -11.6044 C   0  0  0  0  0  0  0  0  0  0  0  0
   -0.3180   14.7629  -11.4965 C   0  0  0  0  0  0  0  0  0  0  0  0
   -0.7558   14.0737  -12.6181 O   0  0  0  0  0  0  0  0  0  0  0  0
   -2.1498   13.9529  -12.8235 C   0  0  0  0  0  0  0  0  0  0  0  0
    0.9922   14.2101  -11.1011 C   0  0  0  0  0  0  0  0  0  0  0  0
    2.1059   14.8268  -11.4638 N   0  0  0  0  0  0  0  0  0  0  0  0
    3.3058   14.3199  -11.1121 C   0  0  0  0  0  0  0  0  0  0  0  0
    3.3983   13.1668  -10.3591 C   0  0  0  0  0  0  0  0  0  0  0  0
    2.2490   12.5365   -9.9953 C   0  0  0  0  0  0  0  0  0  0  0  0
    1.0527   13.0470  -10.3881 C   0  0  0  0  0  0  0  0  0  0  0  0
   -0.1560   12.3947   -9.9965 C   0  0  0  0  0  0  0  0  0  0  0  0
   -0.7315   11.3544  -10.6582 N   0  0  0  0  0  0  0  0  0  0  0  0
   -0.2206   10.6451  -11.8352 C   0  0  0  0  0  0  0  0  0  0  0  0
    0.4227    9.3201  -11.4072 C   0  0  0  0  0  0  0  0  0  0  0  0
   -0.9610   12.7764   -8.9387 C   0  0  0  0  0  0  0  0  0  0  0  0
   -0.7869   13.8580   -7.9259 C   0  0  0  0  0  0  0  0  0  0  0  0
   -0.1411   13.4202   -6.5853 C   0  0  0  0  0  0  0  0  0  0  0  0
   -0.8916   14.0958   -5.4433 C   0  0  0  0  0  0  0  0  0  0  0  0
    1.3295   13.8677   -6.5539 C   0  0  0  0  0  0  0  0  0  0  0  0
   -0.1045   11.9995   -6.3600 C   0  0  0  0  0  0  0  0  0  0  0  0
   -0.7463   11.4548   -5.1767 O   0  0  0  0  0  0  0  0  0  0  0  0
   -0.9795   10.0774   -5.0140 C   0  0  0  0  0  0  0  0  0  0  0  0
   -1.6953    9.7486   -3.7511 C   0  0  0  0  0  0  0  0  0  0  0  0
   -2.3896    8.4909   -3.9561 N   0  0  0  0  0  0  0  0  0  0  0  0
   -3.0656    8.0431   -2.8477 N   0  0  0  0  0  0  0  0  0  0  0  0
   -4.4246    7.9409   -2.8491 C   0  0  0  0  0  0  0  0  0  0  0  0
   -5.1325    8.2429   -4.1288 C   0  0  0  0  0  0  0  0  0  0  0  0
   -6.2953    7.4214   -4.3348 N   0  0  0  0  0  0  0  0  0  0  0  0
   -6.3492    6.4442   -5.2370 C   0  0  0  0  0  0  0  0  0  0  0  0
   -7.6997    5.8498   -5.4194 C   0  0  0  0  0  0  0  0  0  0  0  0
   -7.7880    4.3486   -5.0150 C   0  0  0  0  0  0  0  0  0  0  0  0
   -9.1861    3.8210   -5.2928 C   0  0  0  0  0  0  0  0  0  0  0  0
   -7.4651    4.1880   -3.5263 C   0  0  0  0  0  0  0  0  0  0  0  0
   -8.0614    6.0363   -6.7884 N   0  0  0  0  0  0  0  0  0  0  0  0
   -8.9832    6.9839   -7.0923 C   0  0  0  0  0  0  0  0  0  0  0  0
   -9.5016    7.0190   -8.4925 C   0  0  0  0  0  0  0  0  0  0  0  0
  -10.5998    8.0067   -8.8388 C   0  0  0  0  0  0  0  0  0  0  0  0
  -10.9899    7.7756  -10.2697 C   0  0  0  0  0  0  0  0  0  0  0  0
  -11.2685    6.3385  -10.5059 N   0  0  0  0  0  0  0  0  0  0  0  0
  -12.3498    5.8081  -11.0539 C   0  0  0  0  0  0  0  0  0  0  0  0
  -13.3109    6.6534  -11.4985 C   0  0  0  0  0  0  0  0  0  0  0  0
  -14.1708    7.2349  -11.9203 C   0  0  0  0  0  0  0  0  0  0  0  0
  -15.1586    8.1012  -12.3958 C   0  0  0  0  0  0  0  0  0  0  0  0
  -15.8872    8.7137  -11.3121 N   0  0  0  0  0  0  0  0  0  0  0  0
  -15.7615    8.2060   -9.9929 C   0  0  0  0  0  0  0  0  0  0  0  0
  -16.9219    9.6157  -11.5801 C   0  0  0  0  0  0  0  0  0  0  0  0
  -16.1148    7.2934  -13.2545 C   0  0  0  0  0  0  0  0  0  0  0  0
  -14.4689    9.2037  -13.2221 C   0  0  0  0  0  0  0  0  0  0  0  0
  -12.4919    4.5995  -11.1634 O   0  0  0  0  0  0  0  0  0  0  0  0
  -10.3132    5.3983  -10.0931 C   0  0  0  0  0  0  0  0  0  0  0  0
  -10.0917    5.6614   -8.6868 C   0  0  0  0  0  0  0  0  0  0  0  0
   -9.4127    7.7598   -6.2402 O   0  0  0  0  0  0  0  0  0  0  0  0
   -7.3583    5.1733   -7.7830 C   0  0  0  0  0  0  0  0  0  0  0  0
   -5.3677    6.1115   -5.8906 O   0  0  0  0  0  0  0  0  0  0  0  0
   -5.5975    9.7229   -4.0711 C   0  0  0  0  0  0  0  0  0  0  0  0
   -6.0542   10.1762   -5.4300 C   0  0  0  0  0  0  0  0  0  0  0  0
   -4.8352   10.3925   -6.2766 C   0  0  0  0  0  0  0  0  0  0  0  0
   -5.2231   10.9361   -7.5795 N   0  0  0  0  0  0  0  0  0  0  0  0
   -6.0848   12.2026   -7.3804 C   0  0  0  0  0  0  0  0  0  0  0  0
   -7.2656   11.8861   -6.5634 C   0  0  0  0  0  0  0  0  0  0  0  0
   -6.8283   11.3578   -5.2949 O   0  0  0  0  0  0  0  0  0  0  0  0
   -5.0601    7.6854   -1.8479 O   0  0  0  0  0  0  0  0  0  0  0  0
   -2.2319    7.8074   -1.6751 C   0  0  0  0  0  0  0  0  0  0  0  0
   -1.4621    9.1181   -1.3568 C   0  0  0  0  0  0  0  0  0  0  0  0
   -0.7241    9.6084   -2.5837 C   0  0  0  0  0  0  0  0  0  0  0  0
   -0.6803    9.1290   -5.7788 O   0  0  0  0  0  0  0  0  0  0  0  0
   -2.0225   11.9259   -8.9859 C   0  0  0  0  0  0  0  0  0  0  0  0
   -1.8605   11.0425  -10.0450 C   0  0  0  0  0  0  0  0  0  0  0  0
   -2.8536   10.0587  -10.2779 C   0  0  0  0  0  0  0  0  0  0  0  0
   -3.9473   10.0213   -9.4359 C   0  0  0  0  0  0  0  0  0  0  0  0
   -4.0934   10.9652   -8.3983 C   0  0  0  0  0  0  0  0  0  0  0  0
   -3.0685   11.8954   -8.1908 C   0  0  0  0  0  0  0  0  0  0  0  0
   -8.4313    7.2952   -9.3258 F   0  0  0  0  0  0  0  0  0  0  0  0
  1  2  1  0  0  0  0
  2  3  1  0  0  0  0
  2  5  1  0  0  0  0
  3  4  1  0  0  0  0
  5  6  4  0  0  0  0
  5 10  4  0  0  0  0
  6  7  4  0  0  0  0
  7  8  4  0  0  0  0
  8  9  4  0  0  0  0
  9 10  4  0  0  0  0
 10 11  1  0  0  0  0
 11 12  4  0  0  0  0
 11 15  4  0  0  0  0
 12 13  1  0  0  0  0
 12 68  4  0  0  0  0
 13 14  1  0  0  0  0
 15 16  1  0  0  0  0
 15 67  4  0  0  0  0
 16 17  1  0  0  0  0
 17 18  1  0  0  0  0
 17 19  1  0  0  0  0
 17 20  1  0  0  0  0
 20 21  1  0  0  0  0
 21 22  1  0  0  0  0
 22 23  1  0  0  0  0
 22 66  2  0  0  0  0
 23 24  1  0  0  0  0
 23 65  1  0  0  0  0
 24 25  1  0  0  0  0
 25 26  1  0  0  0  0
 25 63  1  0  0  0  0
 26 27  1  0  0  0  0
 26 62  2  0  0  0  0
 27 28  1  0  0  0  0
 27 55  1  0  0  0  0
 28 29  1  0  0  0  0
 29 30  1  0  0  0  0
 29 54  2  0  0  0  0
 30 31  1  0  0  0  0
 30 34  1  0  0  0  0
 31 32  1  0  0  0  0
 31 33  1  0  0  0  0
 34 35  1  0  0  0  0
 34 53  1  0  0  0  0
 35 36  1  0  0  0  0
 35 52  2  0  0  0  0
 36 37  1  0  0  0  0
 36 51  1  0  0  0  0
 36 73  1  0  0  0  0
 37 38  1  0  0  0  0
 38 39  1  0  0  0  0
 39 40  1  0  0  0  0
 39 50  1  0  0  0  0
 40 41  1  0  0  0  0
 40 49  2  0  0  0  0
 41 42  1  0  0  0  0
 42 43  1  0  0  0  0
 43 44  1  0  0  0  0
 43 47  1  0  0  0  0
 43 48  1  0  0  0  0
 44 45  1  0  0  0  0
 44 46  1  0  0  0  0
 50 51  1  0  0  0  0
 55 56  1  0  0  0  0
 56 57  1  0  0  0  0
 56 61  1  0  0  0  0
 57 58  1  0  0  0  0
 58 59  1  0  0  0  0
 58 71  1  0  0  0  0
 59 60  1  0  0  0  0
 60 61  1  0  0  0  0
 63 64  1  0  0  0  0
 64 65  1  0  0  0  0
 67 68  4  0  0  0  0
 67 72  4  0  0  0  0
 68 69  4  0  0  0  0
 69 70  4  0  0  0  0
 70 71  4  0  0  0  0
 71 72  4  0  0  0  0
M  END
$$$$
