mol_ETKDG1_38
  PyMOL3.1          3D                             0

 73 79  0  0  0  0  0  0  0  0999 V2000
   -0.2607   16.3042  -11.0748 C   0  0  0  0  0  0  0  0  0  0  0  0
    0.0126   14.8941  -11.5965 C   0  0  0  0  0  0  0  0  0  0  0  0
    0.0663   14.8207  -12.9997 O   0  0  0  0  0  0  0  0  0  0  0  0
   -0.9105   13.9862  -13.6178 C   0  0  0  0  0  0  0  0  0  0  0  0
    1.2896   14.3635  -11.0755 C   0  0  0  0  0  0  0  0  0  0  0  0
    2.3944   15.0212  -11.3710 N   0  0  0  0  0  0  0  0  0  0  0  0
    3.5842   14.5661  -10.9666 C   0  0  0  0  0  0  0  0  0  0  0  0
    3.6850   13.3960  -10.2082 C   0  0  0  0  0  0  0  0  0  0  0  0
    2.5467   12.7217   -9.8938 C   0  0  0  0  0  0  0  0  0  0  0  0
    1.3424   13.1993  -10.3300 C   0  0  0  0  0  0  0  0  0  0  0  0
    0.1295   12.5105   -9.9770 C   0  0  0  0  0  0  0  0  0  0  0  0
   -0.4016   11.4579  -10.6629 N   0  0  0  0  0  0  0  0  0  0  0  0
    0.1805   10.7646  -11.8135 C   0  0  0  0  0  0  0  0  0  0  0  0
    0.8287    9.4541  -11.3378 C   0  0  0  0  0  0  0  0  0  0  0  0
   -0.7347   12.8574   -8.9394 C   0  0  0  0  0  0  0  0  0  0  0  0
   -0.6186   13.9069   -7.8915 C   0  0  0  0  0  0  0  0  0  0  0  0
    0.0640   13.4404   -6.5724 C   0  0  0  0  0  0  0  0  0  0  0  0
   -0.6019   14.1490   -5.3860 C   0  0  0  0  0  0  0  0  0  0  0  0
    1.5649   13.7984   -6.5738 C   0  0  0  0  0  0  0  0  0  0  0  0
    0.0347   12.0030   -6.3521 C   0  0  0  0  0  0  0  0  0  0  0  0
   -0.6709   11.4667   -5.2008 O   0  0  0  0  0  0  0  0  0  0  0  0
   -0.9574   10.0945   -5.0607 C   0  0  0  0  0  0  0  0  0  0  0  0
   -1.6906    9.7740   -3.7986 C   0  0  0  0  0  0  0  0  0  0  0  0
   -2.3852    8.5027   -3.9814 N   0  0  0  0  0  0  0  0  0  0  0  0
   -3.0791    8.0885   -2.8681 N   0  0  0  0  0  0  0  0  0  0  0  0
   -4.4405    8.0034   -2.8847 C   0  0  0  0  0  0  0  0  0  0  0  0
   -5.1301    8.2756   -4.2008 C   0  0  0  0  0  0  0  0  0  0  0  0
   -6.3152    7.4717   -4.3894 N   0  0  0  0  0  0  0  0  0  0  0  0
   -6.3994    6.4901   -5.2837 C   0  0  0  0  0  0  0  0  0  0  0  0
   -7.7723    5.9260   -5.4579 C   0  0  0  0  0  0  0  0  0  0  0  0
   -7.8842    4.4175   -5.0706 C   0  0  0  0  0  0  0  0  0  0  0  0
   -9.2951    3.9152   -5.3276 C   0  0  0  0  0  0  0  0  0  0  0  0
   -7.5284    4.2342   -3.5855 C   0  0  0  0  0  0  0  0  0  0  0  0
   -8.1710    6.1545   -6.8264 N   0  0  0  0  0  0  0  0  0  0  0  0
   -9.0840    7.1393   -7.0751 C   0  0  0  0  0  0  0  0  0  0  0  0
   -9.6778    7.2436   -8.4642 C   0  0  0  0  0  0  0  0  0  0  0  0
  -10.7538    8.3146   -8.6150 C   0  0  0  0  0  0  0  0  0  0  0  0
  -11.3307    8.2311   -9.9842 C   0  0  0  0  0  0  0  0  0  0  0  0
  -11.7726    6.8475  -10.2763 N   0  0  0  0  0  0  0  0  0  0  0  0
  -12.9864    6.4791  -10.6896 C   0  0  0  0  0  0  0  0  0  0  0  0
  -13.9297    7.4615  -10.9043 C   0  0  0  0  0  0  0  0  0  0  0  0
  -14.8001    8.1544  -11.1687 C   0  0  0  0  0  0  0  0  0  0  0  0
  -15.8070    9.1352  -11.4133 C   0  0  0  0  0  0  0  0  0  0  0  0
  -17.1017    8.4466  -11.5962 N   0  0  0  0  0  0  0  0  0  0  0  0
  -17.4915    7.6300  -10.4253 C   0  0  0  0  0  0  0  0  0  0  0  0
  -17.1904    7.6607  -12.8395 C   0  0  0  0  0  0  0  0  0  0  0  0
  -15.9025   10.1113  -10.2108 C   0  0  0  0  0  0  0  0  0  0  0  0
  -15.4083    9.9136  -12.6727 C   0  0  0  0  0  0  0  0  0  0  0  0
  -13.2743    5.3044  -10.8753 O   0  0  0  0  0  0  0  0  0  0  0  0
  -10.8252    5.7999  -10.0777 C   0  0  0  0  0  0  0  0  0  0  0  0
  -10.3533    5.9099   -8.6964 C   0  0  0  0  0  0  0  0  0  0  0  0
   -9.4544    7.9073   -6.1800 O   0  0  0  0  0  0  0  0  0  0  0  0
   -7.5202    5.3146   -7.8635 C   0  0  0  0  0  0  0  0  0  0  0  0
   -5.4337    6.1183   -5.9456 O   0  0  0  0  0  0  0  0  0  0  0  0
   -5.5769    9.7681   -4.2273 C   0  0  0  0  0  0  0  0  0  0  0  0
   -5.9812   10.1642   -5.6445 C   0  0  0  0  0  0  0  0  0  0  0  0
   -4.7197   10.4439   -6.4149 C   0  0  0  0  0  0  0  0  0  0  0  0
   -5.0570   10.8877   -7.7826 N   0  0  0  0  0  0  0  0  0  0  0  0
   -5.9978   12.0853   -7.7224 C   0  0  0  0  0  0  0  0  0  0  0  0
   -7.2392   11.7124   -6.9379 C   0  0  0  0  0  0  0  0  0  0  0  0
   -6.8453   11.2901   -5.6109 O   0  0  0  0  0  0  0  0  0  0  0  0
   -5.0956    7.7829   -1.8967 O   0  0  0  0  0  0  0  0  0  0  0  0
   -2.2627    7.8730   -1.6846 C   0  0  0  0  0  0  0  0  0  0  0  0
   -1.4924    9.1901   -1.3793 C   0  0  0  0  0  0  0  0  0  0  0  0
   -0.7349    9.6532   -2.6104 C   0  0  0  0  0  0  0  0  0  0  0  0
   -0.6950    9.1516   -5.8455 O   0  0  0  0  0  0  0  0  0  0  0  0
   -1.7902   11.9808   -9.0383 C   0  0  0  0  0  0  0  0  0  0  0  0
   -1.5567   11.1155  -10.0971 C   0  0  0  0  0  0  0  0  0  0  0  0
   -2.5179   10.1112  -10.3833 C   0  0  0  0  0  0  0  0  0  0  0  0
   -3.6603   10.0418   -9.5929 C   0  0  0  0  0  0  0  0  0  0  0  0
   -3.8880   10.9683   -8.5459 C   0  0  0  0  0  0  0  0  0  0  0  0
   -2.9180   11.9205   -8.2765 C   0  0  0  0  0  0  0  0  0  0  0  0
   -8.6614    7.5014   -9.3754 F   0  0  0  0  0  0  0  0  0  0  0  0
  1  2  1  0  0  0  0
  2  3  1  0  0  0  0
  2  5  1  0  0  0  0
  3  4  1  0  0  0  0
  5  6  4  0  0  0  0
  5 10  4  0  0  0  0
  6  7  4  0  0  0  0
  7  8  4  0  0  0  0
  8  9  4  0  0  0  0
  9 10  4  0  0  0  0
 10 11  1  0  0  0  0
 11 12  4  0  0  0  0
 11 15  4  0  0  0  0
 12 13  1  0  0  0  0
 12 68  4  0  0  0  0
 13 14  1  0  0  0  0
 15 16  1  0  0  0  0
 15 67  4  0  0  0  0
 16 17  1  0  0  0  0
 17 18  1  0  0  0  0
 17 19  1  0  0  0  0
 17 20  1  0  0  0  0
 20 21  1  0  0  0  0
 21 22  1  0  0  0  0
 22 23  1  0  0  0  0
 22 66  2  0  0  0  0
 23 24  1  0  0  0  0
 23 65  1  0  0  0  0
 24 25  1  0  0  0  0
 25 26  1  0  0  0  0
 25 63  1  0  0  0  0
 26 27  1  0  0  0  0
 26 62  2  0  0  0  0
 27 28  1  0  0  0  0
 27 55  1  0  0  0  0
 28 29  1  0  0  0  0
 29 30  1  0  0  0  0
 29 54  2  0  0  0  0
 30 31  1  0  0  0  0
 30 34  1  0  0  0  0
 31 32  1  0  0  0  0
 31 33  1  0  0  0  0
 34 35  1  0  0  0  0
 34 53  1  0  0  0  0
 35 36  1  0  0  0  0
 35 52  2  0  0  0  0
 36 37  1  0  0  0  0
 36 51  1  0  0  0  0
 36 73  1  0  0  0  0
 37 38  1  0  0  0  0
 38 39  1  0  0  0  0
 39 40  1  0  0  0  0
 39 50  1  0  0  0  0
 40 41  1  0  0  0  0
 40 49  2  0  0  0  0
 41 42  1  0  0  0  0
 42 43  1  0  0  0  0
 43 44  1  0  0  0  0
 43 47  1  0  0  0  0
 43 48  1  0  0  0  0
 44 45  1  0  0  0  0
 44 46  1  0  0  0  0
 50 51  1  0  0  0  0
 55 56  1  0  0  0  0
 56 57  1  0  0  0  0
 56 61  1  0  0  0  0
 57 58  1  0  0  0  0
 58 59  1  0  0  0  0
 58 71  1  0  0  0  0
 59 60  1  0  0  0  0
 60 61  1  0  0  0  0
 63 64  1  0  0  0  0
 64 65  1  0  0  0  0
 67 68  4  0  0  0  0
 67 72  4  0  0  0  0
 68 69  4  0  0  0  0
 69 70  4  0  0  0  0
 70 71  4  0  0  0  0
 71 72  4  0  0  0  0
M  END
$$$$
