mol_ETKDG2_69
  PyMOL3.1          3D                             0

 73 79  0  0  0  0  0  0  0  0999 V2000
   -0.5243   15.9304  -11.9213 C   0  0  0  0  0  0  0  0  0  0  0  0
   -0.3657   14.4359  -12.0708 C   0  0  0  0  0  0  0  0  0  0  0  0
   -0.4683   13.9689  -13.3961 O   0  0  0  0  0  0  0  0  0  0  0  0
   -1.7823   13.7321  -13.8876 C   0  0  0  0  0  0  0  0  0  0  0  0
    0.9283   13.9675  -11.5541 C   0  0  0  0  0  0  0  0  0  0  0  0
    2.0354   14.5760  -11.9549 N   0  0  0  0  0  0  0  0  0  0  0  0
    3.2349   14.1569  -11.5257 C   0  0  0  0  0  0  0  0  0  0  0  0
    3.3430   13.0877  -10.6370 C   0  0  0  0  0  0  0  0  0  0  0  0
    2.2064   12.4644  -10.2254 C   0  0  0  0  0  0  0  0  0  0  0  0
    1.0008   12.8969  -10.6943 C   0  0  0  0  0  0  0  0  0  0  0  0
   -0.2066   12.2554  -10.2503 C   0  0  0  0  0  0  0  0  0  0  0  0
   -0.8159   11.2317  -10.9082 N   0  0  0  0  0  0  0  0  0  0  0  0
   -0.3531   10.5303  -12.1107 C   0  0  0  0  0  0  0  0  0  0  0  0
    0.3246    9.2159  -11.7122 C   0  0  0  0  0  0  0  0  0  0  0  0
   -0.9768   12.6428   -9.1583 C   0  0  0  0  0  0  0  0  0  0  0  0
   -0.7570   13.7121   -8.1334 C   0  0  0  0  0  0  0  0  0  0  0  0
   -0.0386   13.2574   -6.8223 C   0  0  0  0  0  0  0  0  0  0  0  0
   -0.6641   14.0138   -5.6459 C   0  0  0  0  0  0  0  0  0  0  0  0
    1.4627   13.6213   -6.8884 C   0  0  0  0  0  0  0  0  0  0  0  0
   -0.0626   11.8605   -6.5624 C   0  0  0  0  0  0  0  0  0  0  0  0
   -0.7220   11.3705   -5.3445 O   0  0  0  0  0  0  0  0  0  0  0  0
   -1.0197   10.0096   -5.1434 C   0  0  0  0  0  0  0  0  0  0  0  0
   -1.7400    9.7363   -3.8677 C   0  0  0  0  0  0  0  0  0  0  0  0
   -2.4509    8.4772   -4.0232 N   0  0  0  0  0  0  0  0  0  0  0  0
   -3.1297    8.0741   -2.8981 N   0  0  0  0  0  0  0  0  0  0  0  0
   -4.4894    7.9759   -2.8923 C   0  0  0  0  0  0  0  0  0  0  0  0
   -5.1967    8.2611   -4.1891 C   0  0  0  0  0  0  0  0  0  0  0  0
   -6.3726    7.4331   -4.3644 N   0  0  0  0  0  0  0  0  0  0  0  0
   -6.4364    6.4371   -5.2501 C   0  0  0  0  0  0  0  0  0  0  0  0
   -7.7885    5.8392   -5.4327 C   0  0  0  0  0  0  0  0  0  0  0  0
   -7.8837    4.3358   -5.0485 C   0  0  0  0  0  0  0  0  0  0  0  0
   -9.2893    3.8177   -5.3352 C   0  0  0  0  0  0  0  0  0  0  0  0
   -7.5602    4.1509   -3.5576 C   0  0  0  0  0  0  0  0  0  0  0  0
   -8.1722    6.0475   -6.8020 N   0  0  0  0  0  0  0  0  0  0  0  0
   -9.1132    6.9902   -7.0602 C   0  0  0  0  0  0  0  0  0  0  0  0
   -9.6751    7.1104   -8.4554 C   0  0  0  0  0  0  0  0  0  0  0  0
  -10.9019    8.0118   -8.5193 C   0  0  0  0  0  0  0  0  0  0  0  0
  -11.4957    7.9554   -9.8899 C   0  0  0  0  0  0  0  0  0  0  0  0
  -11.7106    6.5499  -10.2710 N   0  0  0  0  0  0  0  0  0  0  0  0
  -12.8931    5.9530  -10.5446 C   0  0  0  0  0  0  0  0  0  0  0  0
  -14.0672    6.6547  -10.3890 C   0  0  0  0  0  0  0  0  0  0  0  0
  -15.1249    7.0798  -10.3193 C   0  0  0  0  0  0  0  0  0  0  0  0
  -16.3889    7.7166  -10.1190 C   0  0  0  0  0  0  0  0  0  0  0  0
  -17.2840    6.7917   -9.3860 N   0  0  0  0  0  0  0  0  0  0  0  0
  -16.7480    6.3867   -8.0653 C   0  0  0  0  0  0  0  0  0  0  0  0
  -17.7191    5.6202  -10.1802 C   0  0  0  0  0  0  0  0  0  0  0  0
  -16.2086    9.0113   -9.3075 C   0  0  0  0  0  0  0  0  0  0  0  0
  -16.9557    8.0543  -11.5003 C   0  0  0  0  0  0  0  0  0  0  0  0
  -12.9374    4.7818  -10.9078 O   0  0  0  0  0  0  0  0  0  0  0  0
  -10.5826    5.6976  -10.2528 C   0  0  0  0  0  0  0  0  0  0  0  0
  -10.1270    5.7209   -8.8458 C   0  0  0  0  0  0  0  0  0  0  0  0
   -9.5197    7.7364   -6.1661 O   0  0  0  0  0  0  0  0  0  0  0  0
   -7.4720    5.2256   -7.8274 C   0  0  0  0  0  0  0  0  0  0  0  0
   -5.4569    6.0852   -5.9032 O   0  0  0  0  0  0  0  0  0  0  0  0
   -5.6528    9.7380   -4.1826 C   0  0  0  0  0  0  0  0  0  0  0  0
   -6.0959   10.1458   -5.5754 C   0  0  0  0  0  0  0  0  0  0  0  0
   -4.8702   10.3767   -6.4059 C   0  0  0  0  0  0  0  0  0  0  0  0
   -5.2638   10.8456   -7.7399 N   0  0  0  0  0  0  0  0  0  0  0  0
   -6.1459   12.0883   -7.6161 C   0  0  0  0  0  0  0  0  0  0  0  0
   -7.3480   11.7707   -6.7838 C   0  0  0  0  0  0  0  0  0  0  0  0
   -6.9061   11.3142   -5.4907 O   0  0  0  0  0  0  0  0  0  0  0  0
   -5.1257    7.7386   -1.8964 O   0  0  0  0  0  0  0  0  0  0  0  0
   -2.3036    7.8752   -1.7090 C   0  0  0  0  0  0  0  0  0  0  0  0
   -1.5257    9.1876   -1.4341 C   0  0  0  0  0  0  0  0  0  0  0  0
   -0.7759    9.6248   -2.6823 C   0  0  0  0  0  0  0  0  0  0  0  0
   -0.7753    9.0335   -5.8982 O   0  0  0  0  0  0  0  0  0  0  0  0
   -2.0614   11.8047   -9.1882 C   0  0  0  0  0  0  0  0  0  0  0  0
   -1.9376   10.9328  -10.2626 C   0  0  0  0  0  0  0  0  0  0  0  0
   -2.9509    9.9655  -10.4922 C   0  0  0  0  0  0  0  0  0  0  0  0
   -4.0331    9.9397   -9.6337 C   0  0  0  0  0  0  0  0  0  0  0  0
   -4.1476   10.8711   -8.5684 C   0  0  0  0  0  0  0  0  0  0  0  0
   -3.1152   11.7812   -8.3573 C   0  0  0  0  0  0  0  0  0  0  0  0
   -8.6848    7.5967   -9.2948 F   0  0  0  0  0  0  0  0  0  0  0  0
  1  2  1  0  0  0  0
  2  3  1  0  0  0  0
  2  5  1  0  0  0  0
  3  4  1  0  0  0  0
  5  6  4  0  0  0  0
  5 10  4  0  0  0  0
  6  7  4  0  0  0  0
  7  8  4  0  0  0  0
  8  9  4  0  0  0  0
  9 10  4  0  0  0  0
 10 11  1  0  0  0  0
 11 12  4  0  0  0  0
 11 15  4  0  0  0  0
 12 13  1  0  0  0  0
 12 68  4  0  0  0  0
 13 14  1  0  0  0  0
 15 16  1  0  0  0  0
 15 67  4  0  0  0  0
 16 17  1  0  0  0  0
 17 18  1  0  0  0  0
 17 19  1  0  0  0  0
 17 20  1  0  0  0  0
 20 21  1  0  0  0  0
 21 22  1  0  0  0  0
 22 23  1  0  0  0  0
 22 66  2  0  0  0  0
 23 24  1  0  0  0  0
 23 65  1  0  0  0  0
 24 25  1  0  0  0  0
 25 26  1  0  0  0  0
 25 63  1  0  0  0  0
 26 27  1  0  0  0  0
 26 62  2  0  0  0  0
 27 28  1  0  0  0  0
 27 55  1  0  0  0  0
 28 29  1  0  0  0  0
 29 30  1  0  0  0  0
 29 54  2  0  0  0  0
 30 31  1  0  0  0  0
 30 34  1  0  0  0  0
 31 32  1  0  0  0  0
 31 33  1  0  0  0  0
 34 35  1  0  0  0  0
 34 53  1  0  0  0  0
 35 36  1  0  0  0  0
 35 52  2  0  0  0  0
 36 37  1  0  0  0  0
 36 51  1  0  0  0  0
 36 73  1  0  0  0  0
 37 38  1  0  0  0  0
 38 39  1  0  0  0  0
 39 40  1  0  0  0  0
 39 50  1  0  0  0  0
 40 41  1  0  0  0  0
 40 49  2  0  0  0  0
 41 42  1  0  0  0  0
 42 43  1  0  0  0  0
 43 44  1  0  0  0  0
 43 47  1  0  0  0  0
 43 48  1  0  0  0  0
 44 45  1  0  0  0  0
 44 46  1  0  0  0  0
 50 51  1  0  0  0  0
 55 56  1  0  0  0  0
 56 57  1  0  0  0  0
 56 61  1  0  0  0  0
 57 58  1  0  0  0  0
 58 59  1  0  0  0  0
 58 71  1  0  0  0  0
 59 60  1  0  0  0  0
 60 61  1  0  0  0  0
 63 64  1  0  0  0  0
 64 65  1  0  0  0  0
 67 68  4  0  0  0  0
 67 72  4  0  0  0  0
 68 69  4  0  0  0  0
 69 70  4  0  0  0  0
 70 71  4  0  0  0  0
 71 72  4  0  0  0  0
M  END
$$$$
