mol_ETKDG1_43
  PyMOL3.1          3D                             0

 73 79  0  0  0  0  0  0  0  0999 V2000
    0.0871   14.6647  -13.5432 C   0  0  0  0  0  0  0  0  0  0  0  0
   -0.1082   14.3781  -12.0696 C   0  0  0  0  0  0  0  0  0  0  0  0
   -0.5918   15.4560  -11.3387 O   0  0  0  0  0  0  0  0  0  0  0  0
   -2.0047   15.6383  -11.2737 C   0  0  0  0  0  0  0  0  0  0  0  0
    1.1493   13.9461  -11.4151 C   0  0  0  0  0  0  0  0  0  0  0  0
    2.2892   14.5152  -11.7791 N   0  0  0  0  0  0  0  0  0  0  0  0
    3.4444   14.1506  -11.2076 C   0  0  0  0  0  0  0  0  0  0  0  0
    3.4820   13.1486  -10.2388 C   0  0  0  0  0  0  0  0  0  0  0  0
    2.3161   12.5573   -9.8760 C   0  0  0  0  0  0  0  0  0  0  0  0
    1.1456   12.9609  -10.4615 C   0  0  0  0  0  0  0  0  0  0  0  0
   -0.0982   12.3672  -10.0555 C   0  0  0  0  0  0  0  0  0  0  0  0
   -0.7141   11.3479  -10.7171 N   0  0  0  0  0  0  0  0  0  0  0  0
   -0.2101   10.6184  -11.8904 C   0  0  0  0  0  0  0  0  0  0  0  0
    0.4676    9.3186  -11.4331 C   0  0  0  0  0  0  0  0  0  0  0  0
   -0.9011   12.7825   -8.9934 C   0  0  0  0  0  0  0  0  0  0  0  0
   -0.6917   13.8575   -7.9815 C   0  0  0  0  0  0  0  0  0  0  0  0
   -0.0426   13.4120   -6.6401 C   0  0  0  0  0  0  0  0  0  0  0  0
   -0.7746   14.1028   -5.4866 C   0  0  0  0  0  0  0  0  0  0  0  0
    1.4460   13.8217   -6.5818 C   0  0  0  0  0  0  0  0  0  0  0  0
   -0.0233   11.9820   -6.4052 C   0  0  0  0  0  0  0  0  0  0  0  0
   -0.6668   11.4484   -5.2090 O   0  0  0  0  0  0  0  0  0  0  0  0
   -0.9865   10.0841   -5.0679 C   0  0  0  0  0  0  0  0  0  0  0  0
   -1.6983    9.7692   -3.7885 C   0  0  0  0  0  0  0  0  0  0  0  0
   -2.4035    8.5075   -3.9626 N   0  0  0  0  0  0  0  0  0  0  0  0
   -3.0800    8.0898   -2.8425 N   0  0  0  0  0  0  0  0  0  0  0  0
   -4.4418    7.9970   -2.8419 C   0  0  0  0  0  0  0  0  0  0  0  0
   -5.1531    8.2768   -4.1399 C   0  0  0  0  0  0  0  0  0  0  0  0
   -6.3391    7.4642   -4.3194 N   0  0  0  0  0  0  0  0  0  0  0  0
   -6.4439    6.4951   -5.2395 C   0  0  0  0  0  0  0  0  0  0  0  0
   -7.8316    5.9444   -5.4130 C   0  0  0  0  0  0  0  0  0  0  0  0
   -7.9615    4.4387   -5.0817 C   0  0  0  0  0  0  0  0  0  0  0  0
   -9.3876    3.9670   -5.3319 C   0  0  0  0  0  0  0  0  0  0  0  0
   -7.5795    4.2071   -3.6108 C   0  0  0  0  0  0  0  0  0  0  0  0
   -8.2454    6.2735   -6.7633 N   0  0  0  0  0  0  0  0  0  0  0  0
   -8.9873    7.4025   -6.9298 C   0  0  0  0  0  0  0  0  0  0  0  0
   -9.4866    7.8192   -8.2955 C   0  0  0  0  0  0  0  0  0  0  0  0
  -10.8755    8.4258   -8.1651 C   0  0  0  0  0  0  0  0  0  0  0  0
  -11.3056    8.8713   -9.4974 C   0  0  0  0  0  0  0  0  0  0  0  0
  -10.3139    9.8172  -10.0226 N   0  0  0  0  0  0  0  0  0  0  0  0
  -10.6414   11.0801  -10.3048 C   0  0  0  0  0  0  0  0  0  0  0  0
  -11.9688   11.4445  -10.0488 C   0  0  0  0  0  0  0  0  0  0  0  0
  -13.0780   11.7523   -9.8692 C   0  0  0  0  0  0  0  0  0  0  0  0
  -14.4539   12.0238   -9.5447 C   0  0  0  0  0  0  0  0  0  0  0  0
  -14.8397   11.3160   -8.3053 N   0  0  0  0  0  0  0  0  0  0  0  0
  -14.0302   11.6901   -7.1351 C   0  0  0  0  0  0  0  0  0  0  0  0
  -14.9531    9.8527   -8.4534 C   0  0  0  0  0  0  0  0  0  0  0  0
  -14.6297   13.5288   -9.3233 C   0  0  0  0  0  0  0  0  0  0  0  0
  -15.3253   11.5328  -10.7115 C   0  0  0  0  0  0  0  0  0  0  0  0
   -9.8253   11.8650  -10.7556 O   0  0  0  0  0  0  0  0  0  0  0  0
   -8.9453    9.3383  -10.1735 C   0  0  0  0  0  0  0  0  0  0  0  0
   -8.4832    8.8412   -8.8348 C   0  0  0  0  0  0  0  0  0  0  0  0
   -9.2727    8.1152   -5.9517 O   0  0  0  0  0  0  0  0  0  0  0  0
   -7.7488    5.4091   -7.8544 C   0  0  0  0  0  0  0  0  0  0  0  0
   -5.4941    6.1415   -5.9384 O   0  0  0  0  0  0  0  0  0  0  0  0
   -5.6027    9.7739   -4.1108 C   0  0  0  0  0  0  0  0  0  0  0  0
   -6.0747   10.2258   -5.4916 C   0  0  0  0  0  0  0  0  0  0  0  0
   -4.8479   10.4921   -6.3206 C   0  0  0  0  0  0  0  0  0  0  0  0
   -5.2431   11.0027   -7.6533 N   0  0  0  0  0  0  0  0  0  0  0  0
   -6.1286   12.2333   -7.5039 C   0  0  0  0  0  0  0  0  0  0  0  0
   -7.3421   11.8777   -6.6664 C   0  0  0  0  0  0  0  0  0  0  0  0
   -6.8892   11.3829   -5.3793 O   0  0  0  0  0  0  0  0  0  0  0  0
   -5.0815    7.7665   -1.8460 O   0  0  0  0  0  0  0  0  0  0  0  0
   -2.2466    7.8720   -1.6655 C   0  0  0  0  0  0  0  0  0  0  0  0
   -1.4662    9.1868   -1.3707 C   0  0  0  0  0  0  0  0  0  0  0  0
   -0.7242    9.6541   -2.6143 C   0  0  0  0  0  0  0  0  0  0  0  0
   -0.7638    9.1416   -5.8690 O   0  0  0  0  0  0  0  0  0  0  0  0
   -2.0006   11.9622   -9.0431 C   0  0  0  0  0  0  0  0  0  0  0  0
   -1.8573   11.0759  -10.1071 C   0  0  0  0  0  0  0  0  0  0  0  0
   -2.8802   10.1204  -10.3578 C   0  0  0  0  0  0  0  0  0  0  0  0
   -3.9890   10.1070   -9.5226 C   0  0  0  0  0  0  0  0  0  0  0  0
   -4.1176   11.0428   -8.4692 C   0  0  0  0  0  0  0  0  0  0  0  0
   -3.0910   11.9573   -8.2375 C   0  0  0  0  0  0  0  0  0  0  0  0
   -9.5743    6.7710   -9.1735 F   0  0  0  0  0  0  0  0  0  0  0  0
  1  2  1  0  0  0  0
  2  3  1  0  0  0  0
  2  5  1  0  0  0  0
  3  4  1  0  0  0  0
  5  6  4  0  0  0  0
  5 10  4  0  0  0  0
  6  7  4  0  0  0  0
  7  8  4  0  0  0  0
  8  9  4  0  0  0  0
  9 10  4  0  0  0  0
 10 11  1  0  0  0  0
 11 12  4  0  0  0  0
 11 15  4  0  0  0  0
 12 13  1  0  0  0  0
 12 68  4  0  0  0  0
 13 14  1  0  0  0  0
 15 16  1  0  0  0  0
 15 67  4  0  0  0  0
 16 17  1  0  0  0  0
 17 18  1  0  0  0  0
 17 19  1  0  0  0  0
 17 20  1  0  0  0  0
 20 21  1  0  0  0  0
 21 22  1  0  0  0  0
 22 23  1  0  0  0  0
 22 66  2  0  0  0  0
 23 24  1  0  0  0  0
 23 65  1  0  0  0  0
 24 25  1  0  0  0  0
 25 26  1  0  0  0  0
 25 63  1  0  0  0  0
 26 27  1  0  0  0  0
 26 62  2  0  0  0  0
 27 28  1  0  0  0  0
 27 55  1  0  0  0  0
 28 29  1  0  0  0  0
 29 30  1  0  0  0  0
 29 54  2  0  0  0  0
 30 31  1  0  0  0  0
 30 34  1  0  0  0  0
 31 32  1  0  0  0  0
 31 33  1  0  0  0  0
 34 35  1  0  0  0  0
 34 53  1  0  0  0  0
 35 36  1  0  0  0  0
 35 52  2  0  0  0  0
 36 37  1  0  0  0  0
 36 51  1  0  0  0  0
 36 73  1  0  0  0  0
 37 38  1  0  0  0  0
 38 39  1  0  0  0  0
 39 40  1  0  0  0  0
 39 50  1  0  0  0  0
 40 41  1  0  0  0  0
 40 49  2  0  0  0  0
 41 42  1  0  0  0  0
 42 43  1  0  0  0  0
 43 44  1  0  0  0  0
 43 47  1  0  0  0  0
 43 48  1  0  0  0  0
 44 45  1  0  0  0  0
 44 46  1  0  0  0  0
 50 51  1  0  0  0  0
 55 56  1  0  0  0  0
 56 57  1  0  0  0  0
 56 61  1  0  0  0  0
 57 58  1  0  0  0  0
 58 59  1  0  0  0  0
 58 71  1  0  0  0  0
 59 60  1  0  0  0  0
 60 61  1  0  0  0  0
 63 64  1  0  0  0  0
 64 65  1  0  0  0  0
 67 68  4  0  0  0  0
 67 72  4  0  0  0  0
 68 69  4  0  0  0  0
 69 70  4  0  0  0  0
 70 71  4  0  0  0  0
 71 72  4  0  0  0  0
M  END
$$$$
