mol_bioactive_9
  PyMOL3.1          3D                             0

 73 79  0  0  0  0  0  0  0  0999 V2000
   -0.0230   15.1816  -12.7132 C   0  0  0  0  0  0  0  0  0  0  0  0
   -0.0161   15.0664  -11.1975 C   0  0  0  0  0  0  0  0  0  0  0  0
   -0.1748   16.2688  -10.5176 O   0  0  0  0  0  0  0  0  0  0  0  0
   -1.4953   16.7091  -10.2290 C   0  0  0  0  0  0  0  0  0  0  0  0
    1.2342   14.4538  -10.7169 C   0  0  0  0  0  0  0  0  0  0  0  0
    2.3832   15.0512  -10.9976 N   0  0  0  0  0  0  0  0  0  0  0  0
    3.5459   14.5144  -10.5876 C   0  0  0  0  0  0  0  0  0  0  0  0
    3.5672   13.3131   -9.8775 C   0  0  0  0  0  0  0  0  0  0  0  0
    2.3873   12.6980   -9.5992 C   0  0  0  0  0  0  0  0  0  0  0  0
    1.2203   13.2659  -10.0190 C   0  0  0  0  0  0  0  0  0  0  0  0
   -0.0279   12.6388   -9.6884 C   0  0  0  0  0  0  0  0  0  0  0  0
   -0.5973   11.6491  -10.4202 N   0  0  0  0  0  0  0  0  0  0  0  0
   -0.0669   11.0025  -11.6213 C   0  0  0  0  0  0  0  0  0  0  0  0
    0.5249    9.6419  -11.2613 C   0  0  0  0  0  0  0  0  0  0  0  0
   -0.8569   12.9741   -8.6413 C   0  0  0  0  0  0  0  0  0  0  0  0
   -0.6841   13.9796   -7.5703 C   0  0  0  0  0  0  0  0  0  0  0  0
    0.0136   13.4588   -6.2884 C   0  0  0  0  0  0  0  0  0  0  0  0
   -0.6740   14.0925   -5.0800 C   0  0  0  0  0  0  0  0  0  0  0  0
    1.5009   13.8829   -6.2840 C   0  0  0  0  0  0  0  0  0  0  0  0
    0.0292   12.0204   -6.1576 C   0  0  0  0  0  0  0  0  0  0  0  0
   -0.6919   11.4143   -5.0666 O   0  0  0  0  0  0  0  0  0  0  0  0
   -0.9698   10.0477   -4.9978 C   0  0  0  0  0  0  0  0  0  0  0  0
   -1.7056    9.6830   -3.7577 C   0  0  0  0  0  0  0  0  0  0  0  0
   -2.4106    8.4384   -3.9850 N   0  0  0  0  0  0  0  0  0  0  0  0
   -3.1037    7.9946   -2.8889 N   0  0  0  0  0  0  0  0  0  0  0  0
   -4.4624    7.9327   -2.8893 C   0  0  0  0  0  0  0  0  0  0  0  0
   -5.1858    8.3286   -4.1522 C   0  0  0  0  0  0  0  0  0  0  0  0
   -6.3780    7.5190   -4.3942 N   0  0  0  0  0  0  0  0  0  0  0  0
   -6.4609    6.5102   -5.2830 C   0  0  0  0  0  0  0  0  0  0  0  0
   -7.8345    5.9125   -5.3994 C   0  0  0  0  0  0  0  0  0  0  0  0
   -7.9223    4.4095   -5.0122 C   0  0  0  0  0  0  0  0  0  0  0  0
   -9.3578    3.9133   -5.1895 C   0  0  0  0  0  0  0  0  0  0  0  0
   -7.4972    4.2121   -3.5555 C   0  0  0  0  0  0  0  0  0  0  0  0
   -8.3477    6.1305   -6.7215 N   0  0  0  0  0  0  0  0  0  0  0  0
   -9.2155    7.1582   -6.9053 C   0  0  0  0  0  0  0  0  0  0  0  0
   -9.9710    7.2814   -8.1949 C   0  0  0  0  0  0  0  0  0  0  0  0
  -10.6054    8.6445   -8.3603 C   0  0  0  0  0  0  0  0  0  0  0  0
  -11.4046    8.6490   -9.6007 C   0  0  0  0  0  0  0  0  0  0  0  0
  -12.3736    7.5422   -9.5657 N   0  0  0  0  0  0  0  0  0  0  0  0
  -13.7066    7.7142   -9.6607 C   0  0  0  0  0  0  0  0  0  0  0  0
  -14.2027    8.9992   -9.8505 C   0  0  0  0  0  0  0  0  0  0  0  0
  -14.7507    9.9799  -10.0258 C   0  0  0  0  0  0  0  0  0  0  0  0
  -15.2725   11.2914  -10.1608 C   0  0  0  0  0  0  0  0  0  0  0  0
  -15.3057   11.9460   -8.8565 N   0  0  0  0  0  0  0  0  0  0  0  0
  -15.7622   11.1226   -7.7437 C   0  0  0  0  0  0  0  0  0  0  0  0
  -15.8162   13.2850   -8.8148 C   0  0  0  0  0  0  0  0  0  0  0  0
  -16.6825   11.1958  -10.7386 C   0  0  0  0  0  0  0  0  0  0  0  0
  -14.3564   12.0925  -11.1113 C   0  0  0  0  0  0  0  0  0  0  0  0
  -14.4652    6.7648   -9.5745 O   0  0  0  0  0  0  0  0  0  0  0  0
  -11.8584    6.2079   -9.3813 C   0  0  0  0  0  0  0  0  0  0  0  0
  -11.0598    6.2111   -8.1340 C   0  0  0  0  0  0  0  0  0  0  0  0
   -9.4392    7.9600   -5.9837 O   0  0  0  0  0  0  0  0  0  0  0  0
   -7.8863    5.2120   -7.7993 C   0  0  0  0  0  0  0  0  0  0  0  0
   -5.5109    6.1447   -5.9672 O   0  0  0  0  0  0  0  0  0  0  0  0
   -5.5872    9.8190   -3.9541 C   0  0  0  0  0  0  0  0  0  0  0  0
   -5.6537   10.7003   -5.1667 C   0  0  0  0  0  0  0  0  0  0  0  0
   -5.1448   10.1157   -6.4642 C   0  0  0  0  0  0  0  0  0  0  0  0
   -5.2932   11.0617   -7.5570 N   0  0  0  0  0  0  0  0  0  0  0  0
   -6.0776   12.3222   -7.2409 C   0  0  0  0  0  0  0  0  0  0  0  0
   -7.2119   12.0714   -6.3769 C   0  0  0  0  0  0  0  0  0  0  0  0
   -7.0058   11.1174   -5.3414 O   0  0  0  0  0  0  0  0  0  0  0  0
   -5.0991    7.6678   -1.8918 O   0  0  0  0  0  0  0  0  0  0  0  0
   -2.2833    7.7472   -1.7011 C   0  0  0  0  0  0  0  0  0  0  0  0
   -1.5104    9.0443   -1.3665 C   0  0  0  0  0  0  0  0  0  0  0  0
   -0.7543    9.5257   -2.5706 C   0  0  0  0  0  0  0  0  0  0  0  0
   -0.6939    9.1430   -5.8289 O   0  0  0  0  0  0  0  0  0  0  0  0
   -1.9417   12.1407   -8.7649 C   0  0  0  0  0  0  0  0  0  0  0  0
   -1.7505   11.3182   -9.8577 C   0  0  0  0  0  0  0  0  0  0  0  0
   -2.7442   10.3559  -10.1773 C   0  0  0  0  0  0  0  0  0  0  0  0
   -3.8792   10.2735   -9.3707 C   0  0  0  0  0  0  0  0  0  0  0  0
   -4.0680   11.1547   -8.2965 C   0  0  0  0  0  0  0  0  0  0  0  0
   -3.0421   12.0752   -7.9983 C   0  0  0  0  0  0  0  0  0  0  0  0
   -9.1327    7.0923   -9.2785 F   0  0  0  0  0  0  0  0  0  0  0  0
  1  2  1  0  0  0  0
  2  3  1  0  0  0  0
  2  5  1  0  0  0  0
  3  4  1  0  0  0  0
  5  6  4  0  0  0  0
  5 10  4  0  0  0  0
  6  7  4  0  0  0  0
  7  8  4  0  0  0  0
  8  9  4  0  0  0  0
  9 10  4  0  0  0  0
 10 11  1  0  0  0  0
 11 12  4  0  0  0  0
 11 15  4  0  0  0  0
 12 13  1  0  0  0  0
 12 68  4  0  0  0  0
 13 14  1  0  0  0  0
 15 16  1  0  0  0  0
 15 67  4  0  0  0  0
 16 17  1  0  0  0  0
 17 18  1  0  0  0  0
 17 19  1  0  0  0  0
 17 20  1  0  0  0  0
 20 21  1  0  0  0  0
 21 22  1  0  0  0  0
 22 23  1  0  0  0  0
 22 66  2  0  0  0  0
 23 24  1  0  0  0  0
 23 65  1  0  0  0  0
 24 25  1  0  0  0  0
 25 26  1  0  0  0  0
 25 63  1  0  0  0  0
 26 27  1  0  0  0  0
 26 62  2  0  0  0  0
 27 28  1  0  0  0  0
 27 55  1  0  0  0  0
 28 29  1  0  0  0  0
 29 30  1  0  0  0  0
 29 54  2  0  0  0  0
 30 31  1  0  0  0  0
 30 34  1  0  0  0  0
 31 32  1  0  0  0  0
 31 33  1  0  0  0  0
 34 35  1  0  0  0  0
 34 53  1  0  0  0  0
 35 36  1  0  0  0  0
 35 52  2  0  0  0  0
 36 37  1  0  0  0  0
 36 51  1  0  0  0  0
 36 73  1  0  0  0  0
 37 38  1  0  0  0  0
 38 39  1  0  0  0  0
 39 40  1  0  0  0  0
 39 50  1  0  0  0  0
 40 41  1  0  0  0  0
 40 49  2  0  0  0  0
 41 42  1  0  0  0  0
 42 43  1  0  0  0  0
 43 44  1  0  0  0  0
 43 47  1  0  0  0  0
 43 48  1  0  0  0  0
 44 45  1  0  0  0  0
 44 46  1  0  0  0  0
 50 51  1  0  0  0  0
 55 56  1  0  0  0  0
 56 57  1  0  0  0  0
 56 61  1  0  0  0  0
 57 58  1  0  0  0  0
 58 59  1  0  0  0  0
 58 71  1  0  0  0  0
 59 60  1  0  0  0  0
 60 61  1  0  0  0  0
 63 64  1  0  0  0  0
 64 65  1  0  0  0  0
 67 68  4  0  0  0  0
 67 72  4  0  0  0  0
 68 69  4  0  0  0  0
 69 70  4  0  0  0  0
 70 71  4  0  0  0  0
 71 72  4  0  0  0  0
M  END
$$$$
