mol_ETKDG2_57
  PyMOL3.1          3D                             0

 73 79  0  0  0  0  0  0  0  0999 V2000
   -0.6406   15.8439  -12.0765 C   0  0  0  0  0  0  0  0  0  0  0  0
   -0.5047   14.3523  -12.2606 C   0  0  0  0  0  0  0  0  0  0  0  0
   -0.6535   13.9194  -13.5960 O   0  0  0  0  0  0  0  0  0  0  0  0
   -1.9716   13.6105  -14.0266 C   0  0  0  0  0  0  0  0  0  0  0  0
    0.7941   13.8536  -11.7829 C   0  0  0  0  0  0  0  0  0  0  0  0
    1.8985   14.4210  -12.2420 N   0  0  0  0  0  0  0  0  0  0  0  0
    3.0999   13.9875  -11.8509 C   0  0  0  0  0  0  0  0  0  0  0  0
    3.2190   12.9399  -10.9401 C   0  0  0  0  0  0  0  0  0  0  0  0
    2.0915   12.3533  -10.4690 C   0  0  0  0  0  0  0  0  0  0  0  0
    0.8801   12.8040  -10.8983 C   0  0  0  0  0  0  0  0  0  0  0  0
   -0.3180   12.1960  -10.3940 C   0  0  0  0  0  0  0  0  0  0  0  0
   -0.9863   11.1928  -11.0297 N   0  0  0  0  0  0  0  0  0  0  0  0
   -0.6027   10.4837  -12.2582 C   0  0  0  0  0  0  0  0  0  0  0  0
    0.1002    9.1730  -11.9017 C   0  0  0  0  0  0  0  0  0  0  0  0
   -1.0234   12.5912   -9.2582 C   0  0  0  0  0  0  0  0  0  0  0  0
   -0.7354   13.6418   -8.2235 C   0  0  0  0  0  0  0  0  0  0  0  0
    0.0144   13.1530   -6.9385 C   0  0  0  0  0  0  0  0  0  0  0  0
   -0.4957   13.9697   -5.7444 C   0  0  0  0  0  0  0  0  0  0  0  0
    1.5340   13.4070   -7.0803 C   0  0  0  0  0  0  0  0  0  0  0  0
   -0.1041   11.7604   -6.6584 C   0  0  0  0  0  0  0  0  0  0  0  0
   -0.7254   11.3092   -5.4009 O   0  0  0  0  0  0  0  0  0  0  0  0
   -0.9728    9.9475   -5.1280 C   0  0  0  0  0  0  0  0  0  0  0  0
   -1.6758    9.6961   -3.8325 C   0  0  0  0  0  0  0  0  0  0  0  0
   -2.4096    8.4509   -3.9772 N   0  0  0  0  0  0  0  0  0  0  0  0
   -3.0811    8.0616   -2.8467 N   0  0  0  0  0  0  0  0  0  0  0  0
   -4.4408    7.9724   -2.8344 C   0  0  0  0  0  0  0  0  0  0  0  0
   -5.1513    8.2779   -4.1242 C   0  0  0  0  0  0  0  0  0  0  0  0
   -6.3426    7.4748   -4.2976 N   0  0  0  0  0  0  0  0  0  0  0  0
   -6.4408    6.4965   -5.1878 C   0  0  0  0  0  0  0  0  0  0  0  0
   -7.8160    5.9279   -5.3508 C   0  0  0  0  0  0  0  0  0  0  0  0
   -7.9135    4.4157   -5.0020 C   0  0  0  0  0  0  0  0  0  0  0  0
   -9.3250    3.9079   -5.2739 C   0  0  0  0  0  0  0  0  0  0  0  0
   -7.5623    4.2000   -3.5216 C   0  0  0  0  0  0  0  0  0  0  0  0
   -8.2463    6.1886   -6.7028 N   0  0  0  0  0  0  0  0  0  0  0  0
   -9.1620    7.1739   -6.9046 C   0  0  0  0  0  0  0  0  0  0  0  0
   -9.7668    7.3450   -8.2736 C   0  0  0  0  0  0  0  0  0  0  0  0
  -10.8031    8.4558   -8.3373 C   0  0  0  0  0  0  0  0  0  0  0  0
  -11.3971    8.4856   -9.7001 C   0  0  0  0  0  0  0  0  0  0  0  0
  -11.9100    7.1467  -10.0275 N   0  0  0  0  0  0  0  0  0  0  0  0
  -13.1928    6.8707  -10.3116 C   0  0  0  0  0  0  0  0  0  0  0  0
  -14.1086    7.9002  -10.2704 C   0  0  0  0  0  0  0  0  0  0  0  0
  -14.9397    8.6806  -10.2787 C   0  0  0  0  0  0  0  0  0  0  0  0
  -15.9172    9.7202  -10.1921 C   0  0  0  0  0  0  0  0  0  0  0  0
  -15.6425   10.5717   -9.0243 N   0  0  0  0  0  0  0  0  0  0  0  0
  -15.5201    9.8186   -7.7586 C   0  0  0  0  0  0  0  0  0  0  0  0
  -14.5111   11.4982   -9.2225 C   0  0  0  0  0  0  0  0  0  0  0  0
  -17.3017    9.0909  -10.0498 C   0  0  0  0  0  0  0  0  0  0  0  0
  -15.8460   10.5522  -11.4767 C   0  0  0  0  0  0  0  0  0  0  0  0
  -13.5456    5.7319  -10.5816 O   0  0  0  0  0  0  0  0  0  0  0  0
  -10.9939    6.0491   -9.9663 C   0  0  0  0  0  0  0  0  0  0  0  0
  -10.4718    6.0388   -8.5835 C   0  0  0  0  0  0  0  0  0  0  0  0
   -9.5168    7.9063   -5.9764 O   0  0  0  0  0  0  0  0  0  0  0  0
   -7.6187    5.3785   -7.7815 C   0  0  0  0  0  0  0  0  0  0  0  0
   -5.4857    6.1263   -5.8622 O   0  0  0  0  0  0  0  0  0  0  0  0
   -5.5752    9.7661   -4.0947 C   0  0  0  0  0  0  0  0  0  0  0  0
   -6.0692   10.2086   -5.4588 C   0  0  0  0  0  0  0  0  0  0  0  0
   -4.8800   10.3446   -6.3730 C   0  0  0  0  0  0  0  0  0  0  0  0
   -5.3005   10.9167   -7.6601 N   0  0  0  0  0  0  0  0  0  0  0  0
   -6.0853   12.2214   -7.4270 C   0  0  0  0  0  0  0  0  0  0  0  0
   -7.2417   11.9732   -6.5410 C   0  0  0  0  0  0  0  0  0  0  0  0
   -6.7729   11.4355   -5.2999 O   0  0  0  0  0  0  0  0  0  0  0  0
   -5.0756    7.7417   -1.8399 O   0  0  0  0  0  0  0  0  0  0  0  0
   -2.2515    7.8554   -1.6668 C   0  0  0  0  0  0  0  0  0  0  0  0
   -1.4521    9.1548   -1.4035 C   0  0  0  0  0  0  0  0  0  0  0  0
   -0.7031    9.5708   -2.6584 C   0  0  0  0  0  0  0  0  0  0  0  0
   -0.7029    8.9510   -5.8435 O   0  0  0  0  0  0  0  0  0  0  0  0
   -2.1300   11.7848   -9.2487 C   0  0  0  0  0  0  0  0  0  0  0  0
   -2.0838   10.9215  -10.3354 C   0  0  0  0  0  0  0  0  0  0  0  0
   -3.1365    9.9927  -10.5240 C   0  0  0  0  0  0  0  0  0  0  0  0
   -4.1793    9.9891   -9.6153 C   0  0  0  0  0  0  0  0  0  0  0  0
   -4.2156   10.9134   -8.5377 C   0  0  0  0  0  0  0  0  0  0  0  0
   -3.1285   11.7796   -8.3776 C   0  0  0  0  0  0  0  0  0  0  0  0
   -8.7602    7.6292   -9.1789 F   0  0  0  0  0  0  0  0  0  0  0  0
  1  2  1  0  0  0  0
  2  3  1  0  0  0  0
  2  5  1  0  0  0  0
  3  4  1  0  0  0  0
  5  6  4  0  0  0  0
  5 10  4  0  0  0  0
  6  7  4  0  0  0  0
  7  8  4  0  0  0  0
  8  9  4  0  0  0  0
  9 10  4  0  0  0  0
 10 11  1  0  0  0  0
 11 12  4  0  0  0  0
 11 15  4  0  0  0  0
 12 13  1  0  0  0  0
 12 68  4  0  0  0  0
 13 14  1  0  0  0  0
 15 16  1  0  0  0  0
 15 67  4  0  0  0  0
 16 17  1  0  0  0  0
 17 18  1  0  0  0  0
 17 19  1  0  0  0  0
 17 20  1  0  0  0  0
 20 21  1  0  0  0  0
 21 22  1  0  0  0  0
 22 23  1  0  0  0  0
 22 66  2  0  0  0  0
 23 24  1  0  0  0  0
 23 65  1  0  0  0  0
 24 25  1  0  0  0  0
 25 26  1  0  0  0  0
 25 63  1  0  0  0  0
 26 27  1  0  0  0  0
 26 62  2  0  0  0  0
 27 28  1  0  0  0  0
 27 55  1  0  0  0  0
 28 29  1  0  0  0  0
 29 30  1  0  0  0  0
 29 54  2  0  0  0  0
 30 31  1  0  0  0  0
 30 34  1  0  0  0  0
 31 32  1  0  0  0  0
 31 33  1  0  0  0  0
 34 35  1  0  0  0  0
 34 53  1  0  0  0  0
 35 36  1  0  0  0  0
 35 52  2  0  0  0  0
 36 37  1  0  0  0  0
 36 51  1  0  0  0  0
 36 73  1  0  0  0  0
 37 38  1  0  0  0  0
 38 39  1  0  0  0  0
 39 40  1  0  0  0  0
 39 50  1  0  0  0  0
 40 41  1  0  0  0  0
 40 49  2  0  0  0  0
 41 42  1  0  0  0  0
 42 43  1  0  0  0  0
 43 44  1  0  0  0  0
 43 47  1  0  0  0  0
 43 48  1  0  0  0  0
 44 45  1  0  0  0  0
 44 46  1  0  0  0  0
 50 51  1  0  0  0  0
 55 56  1  0  0  0  0
 56 57  1  0  0  0  0
 56 61  1  0  0  0  0
 57 58  1  0  0  0  0
 58 59  1  0  0  0  0
 58 71  1  0  0  0  0
 59 60  1  0  0  0  0
 60 61  1  0  0  0  0
 63 64  1  0  0  0  0
 64 65  1  0  0  0  0
 67 68  4  0  0  0  0
 67 72  4  0  0  0  0
 68 69  4  0  0  0  0
 69 70  4  0  0  0  0
 70 71  4  0  0  0  0
 71 72  4  0  0  0  0
M  END
$$$$
