mol_ETKDG5_143
  PyMOL3.1          3D                             0

 73 79  0  0  0  0  0  0  0  0999 V2000
   -0.1271   15.5441  -12.8382 C   0  0  0  0  0  0  0  0  0  0  0  0
   -0.1392   15.2174  -11.3570 C   0  0  0  0  0  0  0  0  0  0  0  0
   -0.3391   16.3433  -10.5371 O   0  0  0  0  0  0  0  0  0  0  0  0
   -1.6644   16.7356  -10.2382 C   0  0  0  0  0  0  0  0  0  0  0  0
    1.1196   14.5914  -10.9240 C   0  0  0  0  0  0  0  0  0  0  0  0
    2.2532   15.2172  -11.1965 N   0  0  0  0  0  0  0  0  0  0  0  0
    3.4305   14.6655  -10.8466 C   0  0  0  0  0  0  0  0  0  0  0  0
    3.4847   13.4262  -10.2067 C   0  0  0  0  0  0  0  0  0  0  0  0
    2.3142   12.7838   -9.9339 C   0  0  0  0  0  0  0  0  0  0  0  0
    1.1305   13.3695  -10.2865 C   0  0  0  0  0  0  0  0  0  0  0  0
   -0.1092   12.7065   -9.9501 C   0  0  0  0  0  0  0  0  0  0  0  0
   -0.6992   11.7440  -10.7073 N   0  0  0  0  0  0  0  0  0  0  0  0
   -0.2026   11.1729  -11.9598 C   0  0  0  0  0  0  0  0  0  0  0  0
    0.4145    9.8010  -11.6868 C   0  0  0  0  0  0  0  0  0  0  0  0
   -0.9165   12.9923   -8.8573 C   0  0  0  0  0  0  0  0  0  0  0  0
   -0.7381   13.9668   -7.7482 C   0  0  0  0  0  0  0  0  0  0  0  0
    0.0061   13.4129   -6.4941 C   0  0  0  0  0  0  0  0  0  0  0  0
   -0.5609   14.0963   -5.2561 C   0  0  0  0  0  0  0  0  0  0  0  0
    1.5097   13.7559   -6.5800 C   0  0  0  0  0  0  0  0  0  0  0  0
   -0.0493   11.9945   -6.3484 C   0  0  0  0  0  0  0  0  0  0  0  0
   -0.7161   11.4246   -5.1831 O   0  0  0  0  0  0  0  0  0  0  0  0
   -0.9856   10.0520   -5.0548 C   0  0  0  0  0  0  0  0  0  0  0  0
   -1.7176    9.7123   -3.8028 C   0  0  0  0  0  0  0  0  0  0  0  0
   -2.3972    8.4463   -3.9981 N   0  0  0  0  0  0  0  0  0  0  0  0
   -3.0859    8.0126   -2.8907 N   0  0  0  0  0  0  0  0  0  0  0  0
   -4.4424    7.8980   -2.9046 C   0  0  0  0  0  0  0  0  0  0  0  0
   -5.1428    8.1867   -4.2020 C   0  0  0  0  0  0  0  0  0  0  0  0
   -6.3312    7.3856   -4.3849 N   0  0  0  0  0  0  0  0  0  0  0  0
   -6.4387    6.4290   -5.3164 C   0  0  0  0  0  0  0  0  0  0  0  0
   -7.8251    5.8792   -5.4846 C   0  0  0  0  0  0  0  0  0  0  0  0
   -7.9577    4.3778   -5.1291 C   0  0  0  0  0  0  0  0  0  0  0  0
   -9.3836    3.9042   -5.3646 C   0  0  0  0  0  0  0  0  0  0  0  0
   -7.5688    4.1575   -3.6586 C   0  0  0  0  0  0  0  0  0  0  0  0
   -8.2343    6.1849   -6.8403 N   0  0  0  0  0  0  0  0  0  0  0  0
   -8.9955    7.2920   -7.0453 C   0  0  0  0  0  0  0  0  0  0  0  0
   -9.4865    7.6542   -8.4279 C   0  0  0  0  0  0  0  0  0  0  0  0
  -10.9085    8.1655   -8.3882 C   0  0  0  0  0  0  0  0  0  0  0  0
  -11.3175    8.5020   -9.7650 C   0  0  0  0  0  0  0  0  0  0  0  0
  -10.3619    9.4444  -10.3551 N   0  0  0  0  0  0  0  0  0  0  0  0
  -10.7337   10.6305  -10.8554 C   0  0  0  0  0  0  0  0  0  0  0  0
  -12.0800   10.9782  -10.7805 C   0  0  0  0  0  0  0  0  0  0  0  0
  -13.1872   11.3192  -10.7884 C   0  0  0  0  0  0  0  0  0  0  0  0
  -14.5549   11.7141  -10.6653 C   0  0  0  0  0  0  0  0  0  0  0  0
  -15.2838   10.7967   -9.8156 N   0  0  0  0  0  0  0  0  0  0  0  0
  -14.7222   10.4802   -8.5344 C   0  0  0  0  0  0  0  0  0  0  0  0
  -16.1585    9.8225  -10.4001 C   0  0  0  0  0  0  0  0  0  0  0  0
  -14.6562   13.1003  -10.0119 C   0  0  0  0  0  0  0  0  0  0  0  0
  -15.1560   11.7630  -12.0575 C   0  0  0  0  0  0  0  0  0  0  0  0
   -9.9189   11.3822  -11.3501 O   0  0  0  0  0  0  0  0  0  0  0  0
   -8.9582    9.0684  -10.3786 C   0  0  0  0  0  0  0  0  0  0  0  0
   -8.5376    8.7147   -8.9972 C   0  0  0  0  0  0  0  0  0  0  0  0
   -9.3057    8.0239   -6.0919 O   0  0  0  0  0  0  0  0  0  0  0  0
   -7.7127    5.3003   -7.9140 C   0  0  0  0  0  0  0  0  0  0  0  0
   -5.4937    6.0794   -6.0213 O   0  0  0  0  0  0  0  0  0  0  0  0
   -5.5889    9.6770   -4.1823 C   0  0  0  0  0  0  0  0  0  0  0  0
   -6.0499   10.1195   -5.5612 C   0  0  0  0  0  0  0  0  0  0  0  0
   -4.8217   10.4433   -6.3695 C   0  0  0  0  0  0  0  0  0  0  0  0
   -5.2099   10.9863   -7.6840 N   0  0  0  0  0  0  0  0  0  0  0  0
   -6.1492   12.1561   -7.5285 C   0  0  0  0  0  0  0  0  0  0  0  0
   -7.3624   11.7336   -6.7262 C   0  0  0  0  0  0  0  0  0  0  0  0
   -6.9112   11.2390   -5.4434 O   0  0  0  0  0  0  0  0  0  0  0  0
   -5.0796    7.6436   -1.9144 O   0  0  0  0  0  0  0  0  0  0  0  0
   -2.2670    7.8118   -1.6967 C   0  0  0  0  0  0  0  0  0  0  0  0
   -1.5128    9.1353   -1.3921 C   0  0  0  0  0  0  0  0  0  0  0  0
   -0.7618    9.6002   -2.6156 C   0  0  0  0  0  0  0  0  0  0  0  0
   -0.6989    9.1220   -5.8453 O   0  0  0  0  0  0  0  0  0  0  0  0
   -1.9959   12.1488   -8.9854 C   0  0  0  0  0  0  0  0  0  0  0  0
   -1.8337   11.3773  -10.1233 C   0  0  0  0  0  0  0  0  0  0  0  0
   -2.8404   10.4184  -10.4595 C   0  0  0  0  0  0  0  0  0  0  0  0
   -3.9353   10.2960   -9.6261 C   0  0  0  0  0  0  0  0  0  0  0  0
   -4.0792   11.1204   -8.4953 C   0  0  0  0  0  0  0  0  0  0  0  0
   -3.0821   12.0372   -8.1778 C   0  0  0  0  0  0  0  0  0  0  0  0
   -9.4966    6.5760   -9.2739 F   0  0  0  0  0  0  0  0  0  0  0  0
  1  2  1  0  0  0  0
  2  3  1  0  0  0  0
  2  5  1  0  0  0  0
  3  4  1  0  0  0  0
  5  6  4  0  0  0  0
  5 10  4  0  0  0  0
  6  7  4  0  0  0  0
  7  8  4  0  0  0  0
  8  9  4  0  0  0  0
  9 10  4  0  0  0  0
 10 11  1  0  0  0  0
 11 12  4  0  0  0  0
 11 15  4  0  0  0  0
 12 13  1  0  0  0  0
 12 68  4  0  0  0  0
 13 14  1  0  0  0  0
 15 16  1  0  0  0  0
 15 67  4  0  0  0  0
 16 17  1  0  0  0  0
 17 18  1  0  0  0  0
 17 19  1  0  0  0  0
 17 20  1  0  0  0  0
 20 21  1  0  0  0  0
 21 22  1  0  0  0  0
 22 23  1  0  0  0  0
 22 66  2  0  0  0  0
 23 24  1  0  0  0  0
 23 65  1  0  0  0  0
 24 25  1  0  0  0  0
 25 26  1  0  0  0  0
 25 63  1  0  0  0  0
 26 27  1  0  0  0  0
 26 62  2  0  0  0  0
 27 28  1  0  0  0  0
 27 55  1  0  0  0  0
 28 29  1  0  0  0  0
 29 30  1  0  0  0  0
 29 54  2  0  0  0  0
 30 31  1  0  0  0  0
 30 34  1  0  0  0  0
 31 32  1  0  0  0  0
 31 33  1  0  0  0  0
 34 35  1  0  0  0  0
 34 53  1  0  0  0  0
 35 36  1  0  0  0  0
 35 52  2  0  0  0  0
 36 37  1  0  0  0  0
 36 51  1  0  0  0  0
 36 73  1  0  0  0  0
 37 38  1  0  0  0  0
 38 39  1  0  0  0  0
 39 40  1  0  0  0  0
 39 50  1  0  0  0  0
 40 41  1  0  0  0  0
 40 49  2  0  0  0  0
 41 42  1  0  0  0  0
 42 43  1  0  0  0  0
 43 44  1  0  0  0  0
 43 47  1  0  0  0  0
 43 48  1  0  0  0  0
 44 45  1  0  0  0  0
 44 46  1  0  0  0  0
 50 51  1  0  0  0  0
 55 56  1  0  0  0  0
 56 57  1  0  0  0  0
 56 61  1  0  0  0  0
 57 58  1  0  0  0  0
 58 59  1  0  0  0  0
 58 71  1  0  0  0  0
 59 60  1  0  0  0  0
 60 61  1  0  0  0  0
 63 64  1  0  0  0  0
 64 65  1  0  0  0  0
 67 68  4  0  0  0  0
 67 72  4  0  0  0  0
 68 69  4  0  0  0  0
 69 70  4  0  0  0  0
 70 71  4  0  0  0  0
 71 72  4  0  0  0  0
M  END
$$$$
