mol_ETKDG1_34
  PyMOL3.1          3D                             0

 73 79  0  0  0  0  0  0  0  0999 V2000
   -0.1353   16.4219  -11.5822 C   0  0  0  0  0  0  0  0  0  0  0  0
   -0.0249   14.9184  -11.6840 C   0  0  0  0  0  0  0  0  0  0  0  0
   -0.1788   14.3914  -12.9724 O   0  0  0  0  0  0  0  0  0  0  0  0
   -1.5029   14.1610  -13.4348 C   0  0  0  0  0  0  0  0  0  0  0  0
    1.2762   14.4248  -11.1751 C   0  0  0  0  0  0  0  0  0  0  0  0
    2.3854   15.0502  -11.5342 N   0  0  0  0  0  0  0  0  0  0  0  0
    3.5834   14.5986  -11.1303 C   0  0  0  0  0  0  0  0  0  0  0  0
    3.6884   13.4734  -10.3056 C   0  0  0  0  0  0  0  0  0  0  0  0
    2.5457   12.8374   -9.9317 C   0  0  0  0  0  0  0  0  0  0  0  0
    1.3385   13.3024  -10.3744 C   0  0  0  0  0  0  0  0  0  0  0  0
    0.1259   12.6451   -9.9760 C   0  0  0  0  0  0  0  0  0  0  0  0
   -0.4506   11.6064  -10.6483 N   0  0  0  0  0  0  0  0  0  0  0  0
    0.0799   10.8940  -11.8133 C   0  0  0  0  0  0  0  0  0  0  0  0
    0.7351    9.5809  -11.3551 C   0  0  0  0  0  0  0  0  0  0  0  0
   -0.6907   13.0102   -8.9108 C   0  0  0  0  0  0  0  0  0  0  0  0
   -0.5128   14.0454   -7.8612 C   0  0  0  0  0  0  0  0  0  0  0  0
    0.1296   13.5444   -6.5367 C   0  0  0  0  0  0  0  0  0  0  0  0
   -0.5713   14.2302   -5.3594 C   0  0  0  0  0  0  0  0  0  0  0  0
    1.6312   13.9065   -6.4899 C   0  0  0  0  0  0  0  0  0  0  0  0
    0.0933   12.0902   -6.3325 C   0  0  0  0  0  0  0  0  0  0  0  0
   -0.6205   11.5355   -5.1859 O   0  0  0  0  0  0  0  0  0  0  0  0
   -0.8854   10.1527   -5.0587 C   0  0  0  0  0  0  0  0  0  0  0  0
   -1.6331    9.8049   -3.8018 C   0  0  0  0  0  0  0  0  0  0  0  0
   -2.3371    8.5410   -4.0167 N   0  0  0  0  0  0  0  0  0  0  0  0
   -3.0346    8.0925   -2.9110 N   0  0  0  0  0  0  0  0  0  0  0  0
   -4.3974    7.9930   -2.9234 C   0  0  0  0  0  0  0  0  0  0  0  0
   -5.1000    8.3119   -4.2193 C   0  0  0  0  0  0  0  0  0  0  0  0
   -6.2958    7.5209   -4.4324 N   0  0  0  0  0  0  0  0  0  0  0  0
   -6.3977    6.5640   -5.3583 C   0  0  0  0  0  0  0  0  0  0  0  0
   -7.7772    5.9977   -5.5126 C   0  0  0  0  0  0  0  0  0  0  0  0
   -7.8731    4.4812   -5.1824 C   0  0  0  0  0  0  0  0  0  0  0  0
   -9.2822    3.9768   -5.4434 C   0  0  0  0  0  0  0  0  0  0  0  0
   -7.5094    4.2523   -3.7055 C   0  0  0  0  0  0  0  0  0  0  0  0
   -8.2360    6.2922   -6.8569 N   0  0  0  0  0  0  0  0  0  0  0  0
   -9.0829    7.3495   -7.0173 C   0  0  0  0  0  0  0  0  0  0  0  0
   -9.7500    7.5891   -8.3559 C   0  0  0  0  0  0  0  0  0  0  0  0
  -10.5655    8.8885   -8.3571 C   0  0  0  0  0  0  0  0  0  0  0  0
  -11.2755    9.0186   -9.6493 C   0  0  0  0  0  0  0  0  0  0  0  0
  -12.0854    7.8120   -9.8774 N   0  0  0  0  0  0  0  0  0  0  0  0
  -13.4210    7.8190  -10.0107 C   0  0  0  0  0  0  0  0  0  0  0  0
  -14.1247    9.0078   -9.7606 C   0  0  0  0  0  0  0  0  0  0  0  0
  -14.7922    9.9325   -9.5885 C   0  0  0  0  0  0  0  0  0  0  0  0
  -15.5214   11.1259   -9.2777 C   0  0  0  0  0  0  0  0  0  0  0  0
  -14.7852   11.9134   -8.2726 N   0  0  0  0  0  0  0  0  0  0  0  0
  -14.5725   11.1910   -7.0105 C   0  0  0  0  0  0  0  0  0  0  0  0
  -13.5303   12.4956   -8.7781 C   0  0  0  0  0  0  0  0  0  0  0  0
  -16.8965   10.7411   -8.7045 C   0  0  0  0  0  0  0  0  0  0  0  0
  -15.6936   11.9518  -10.5620 C   0  0  0  0  0  0  0  0  0  0  0  0
  -14.0261    6.8016  -10.3148 O   0  0  0  0  0  0  0  0  0  0  0  0
  -11.3853    6.5416   -9.8907 C   0  0  0  0  0  0  0  0  0  0  0  0
  -10.7069    6.4180   -8.5692 C   0  0  0  0  0  0  0  0  0  0  0  0
   -9.3371    8.1049   -6.0650 O   0  0  0  0  0  0  0  0  0  0  0  0
   -7.7296    5.4313   -7.9583 C   0  0  0  0  0  0  0  0  0  0  0  0
   -5.4440    6.2122   -6.0525 O   0  0  0  0  0  0  0  0  0  0  0  0
   -5.5216    9.8105   -4.1482 C   0  0  0  0  0  0  0  0  0  0  0  0
   -5.9315   10.3291   -5.5154 C   0  0  0  0  0  0  0  0  0  0  0  0
   -4.6786   10.5429   -6.3310 C   0  0  0  0  0  0  0  0  0  0  0  0
   -5.0163   11.1676   -7.6164 N   0  0  0  0  0  0  0  0  0  0  0  0
   -5.8449   12.4514   -7.3705 C   0  0  0  0  0  0  0  0  0  0  0  0
   -7.0645   12.1248   -6.5901 C   0  0  0  0  0  0  0  0  0  0  0  0
   -6.6710   11.5278   -5.3410 O   0  0  0  0  0  0  0  0  0  0  0  0
   -5.0485    7.7332   -1.9383 O   0  0  0  0  0  0  0  0  0  0  0  0
   -2.2193    7.8555   -1.7280 C   0  0  0  0  0  0  0  0  0  0  0  0
   -1.4552    9.1724   -1.3923 C   0  0  0  0  0  0  0  0  0  0  0  0
   -0.6867    9.6592   -2.6106 C   0  0  0  0  0  0  0  0  0  0  0  0
   -0.5861    9.2226   -5.8493 O   0  0  0  0  0  0  0  0  0  0  0  0
   -1.7649   12.1621   -8.9787 C   0  0  0  0  0  0  0  0  0  0  0  0
   -1.5912   11.2934  -10.0436 C   0  0  0  0  0  0  0  0  0  0  0  0
   -2.5855   10.3168  -10.3007 C   0  0  0  0  0  0  0  0  0  0  0  0
   -3.6983   10.2718   -9.4671 C   0  0  0  0  0  0  0  0  0  0  0  0
   -3.8643   11.2078   -8.4176 C   0  0  0  0  0  0  0  0  0  0  0  0
   -2.8345   12.1278   -8.1888 C   0  0  0  0  0  0  0  0  0  0  0  0
   -8.7934    7.6564   -9.3579 F   0  0  0  0  0  0  0  0  0  0  0  0
  1  2  1  0  0  0  0
  2  3  1  0  0  0  0
  2  5  1  0  0  0  0
  3  4  1  0  0  0  0
  5  6  4  0  0  0  0
  5 10  4  0  0  0  0
  6  7  4  0  0  0  0
  7  8  4  0  0  0  0
  8  9  4  0  0  0  0
  9 10  4  0  0  0  0
 10 11  1  0  0  0  0
 11 12  4  0  0  0  0
 11 15  4  0  0  0  0
 12 13  1  0  0  0  0
 12 68  4  0  0  0  0
 13 14  1  0  0  0  0
 15 16  1  0  0  0  0
 15 67  4  0  0  0  0
 16 17  1  0  0  0  0
 17 18  1  0  0  0  0
 17 19  1  0  0  0  0
 17 20  1  0  0  0  0
 20 21  1  0  0  0  0
 21 22  1  0  0  0  0
 22 23  1  0  0  0  0
 22 66  2  0  0  0  0
 23 24  1  0  0  0  0
 23 65  1  0  0  0  0
 24 25  1  0  0  0  0
 25 26  1  0  0  0  0
 25 63  1  0  0  0  0
 26 27  1  0  0  0  0
 26 62  2  0  0  0  0
 27 28  1  0  0  0  0
 27 55  1  0  0  0  0
 28 29  1  0  0  0  0
 29 30  1  0  0  0  0
 29 54  2  0  0  0  0
 30 31  1  0  0  0  0
 30 34  1  0  0  0  0
 31 32  1  0  0  0  0
 31 33  1  0  0  0  0
 34 35  1  0  0  0  0
 34 53  1  0  0  0  0
 35 36  1  0  0  0  0
 35 52  2  0  0  0  0
 36 37  1  0  0  0  0
 36 51  1  0  0  0  0
 36 73  1  0  0  0  0
 37 38  1  0  0  0  0
 38 39  1  0  0  0  0
 39 40  1  0  0  0  0
 39 50  1  0  0  0  0
 40 41  1  0  0  0  0
 40 49  2  0  0  0  0
 41 42  1  0  0  0  0
 42 43  1  0  0  0  0
 43 44  1  0  0  0  0
 43 47  1  0  0  0  0
 43 48  1  0  0  0  0
 44 45  1  0  0  0  0
 44 46  1  0  0  0  0
 50 51  1  0  0  0  0
 55 56  1  0  0  0  0
 56 57  1  0  0  0  0
 56 61  1  0  0  0  0
 57 58  1  0  0  0  0
 58 59  1  0  0  0  0
 58 71  1  0  0  0  0
 59 60  1  0  0  0  0
 60 61  1  0  0  0  0
 63 64  1  0  0  0  0
 64 65  1  0  0  0  0
 67 68  4  0  0  0  0
 67 72  4  0  0  0  0
 68 69  4  0  0  0  0
 69 70  4  0  0  0  0
 70 71  4  0  0  0  0
 71 72  4  0  0  0  0
M  END
$$$$
