mol_ETKDG4_123
  PyMOL3.1          3D                             0

 73 79  0  0  0  0  0  0  0  0999 V2000
    0.0885   16.6118  -11.3835 C   0  0  0  0  0  0  0  0  0  0  0  0
   -0.0317   15.1226  -11.1822 C   0  0  0  0  0  0  0  0  0  0  0  0
   -0.5066   14.4636  -12.3213 O   0  0  0  0  0  0  0  0  0  0  0  0
   -1.9083   14.4105  -12.5037 C   0  0  0  0  0  0  0  0  0  0  0  0
    1.2473   14.4834  -10.8034 C   0  0  0  0  0  0  0  0  0  0  0  0
    2.3844   15.0886  -11.1098 N   0  0  0  0  0  0  0  0  0  0  0  0
    3.5635   14.5194  -10.7980 C   0  0  0  0  0  0  0  0  0  0  0  0
    3.6181   13.3084  -10.1338 C   0  0  0  0  0  0  0  0  0  0  0  0
    2.4494   12.6866   -9.8201 C   0  0  0  0  0  0  0  0  0  0  0  0
    1.2663   13.2600  -10.1708 C   0  0  0  0  0  0  0  0  0  0  0  0
    0.0340   12.6024   -9.8346 C   0  0  0  0  0  0  0  0  0  0  0  0
   -0.5258   11.5885  -10.5523 N   0  0  0  0  0  0  0  0  0  0  0  0
    0.0239   10.9151  -11.7312 C   0  0  0  0  0  0  0  0  0  0  0  0
    0.6796    9.5901  -11.3088 C   0  0  0  0  0  0  0  0  0  0  0  0
   -0.8064   12.9387   -8.7825 C   0  0  0  0  0  0  0  0  0  0  0  0
   -0.6613   13.9623   -7.7087 C   0  0  0  0  0  0  0  0  0  0  0  0
    0.0502   13.4650   -6.4230 C   0  0  0  0  0  0  0  0  0  0  0  0
   -0.5684   14.1563   -5.2111 C   0  0  0  0  0  0  0  0  0  0  0  0
    1.5470   13.8250   -6.4888 C   0  0  0  0  0  0  0  0  0  0  0  0
    0.0139   12.0205   -6.2387 C   0  0  0  0  0  0  0  0  0  0  0  0
   -0.7130   11.4602   -5.1240 O   0  0  0  0  0  0  0  0  0  0  0  0
   -0.9877   10.0863   -5.0076 C   0  0  0  0  0  0  0  0  0  0  0  0
   -1.7202    9.7463   -3.7563 C   0  0  0  0  0  0  0  0  0  0  0  0
   -2.4210    8.4939   -3.9675 N   0  0  0  0  0  0  0  0  0  0  0  0
   -3.1138    8.0609   -2.8590 N   0  0  0  0  0  0  0  0  0  0  0  0
   -4.4753    7.9866   -2.8716 C   0  0  0  0  0  0  0  0  0  0  0  0
   -5.1752    8.2913   -4.1600 C   0  0  0  0  0  0  0  0  0  0  0  0
   -6.3516    7.4803   -4.3575 N   0  0  0  0  0  0  0  0  0  0  0  0
   -6.4103    6.4878   -5.2466 C   0  0  0  0  0  0  0  0  0  0  0  0
   -7.7642    5.8988   -5.4273 C   0  0  0  0  0  0  0  0  0  0  0  0
   -7.8446    4.3903   -5.0386 C   0  0  0  0  0  0  0  0  0  0  0  0
   -9.2293    3.8443   -5.3483 C   0  0  0  0  0  0  0  0  0  0  0  0
   -7.5461    4.2128   -3.5462 C   0  0  0  0  0  0  0  0  0  0  0  0
   -8.1588    6.1014   -6.7935 N   0  0  0  0  0  0  0  0  0  0  0  0
   -9.1808    6.9597   -7.0528 C   0  0  0  0  0  0  0  0  0  0  0  0
   -9.7445    7.0538   -8.4469 C   0  0  0  0  0  0  0  0  0  0  0  0
  -11.1287    7.7007   -8.4956 C   0  0  0  0  0  0  0  0  0  0  0  0
  -11.7065    7.6016   -9.8712 C   0  0  0  0  0  0  0  0  0  0  0  0
  -11.5974    6.2130  -10.3683 N   0  0  0  0  0  0  0  0  0  0  0  0
  -12.5809    5.3976  -10.7867 C   0  0  0  0  0  0  0  0  0  0  0  0
  -13.8955    5.8227  -10.7475 C   0  0  0  0  0  0  0  0  0  0  0  0
  -15.0135    6.0667  -10.8046 C   0  0  0  0  0  0  0  0  0  0  0  0
  -16.3937    6.4221  -10.7832 C   0  0  0  0  0  0  0  0  0  0  0  0
  -16.6043    7.6271   -9.9631 N   0  0  0  0  0  0  0  0  0  0  0  0
  -16.1307    7.4948   -8.5757 C   0  0  0  0  0  0  0  0  0  0  0  0
  -16.1607    8.8720  -10.5835 C   0  0  0  0  0  0  0  0  0  0  0  0
  -17.2041    5.2741  -10.1823 C   0  0  0  0  0  0  0  0  0  0  0  0
  -16.8351    6.6788  -12.2264 C   0  0  0  0  0  0  0  0  0  0  0  0
  -12.3325    4.2624  -11.1944 O   0  0  0  0  0  0  0  0  0  0  0  0
  -10.3219    5.6257  -10.3430 C   0  0  0  0  0  0  0  0  0  0  0  0
   -9.9312    5.6434   -8.9309 C   0  0  0  0  0  0  0  0  0  0  0  0
   -9.6585    7.6600   -6.1567 O   0  0  0  0  0  0  0  0  0  0  0  0
   -7.3749    5.3654   -7.8244 C   0  0  0  0  0  0  0  0  0  0  0  0
   -5.4281    6.1352   -5.8886 O   0  0  0  0  0  0  0  0  0  0  0  0
   -5.6269    9.7801   -4.1291 C   0  0  0  0  0  0  0  0  0  0  0  0
   -6.0425   10.2267   -5.5131 C   0  0  0  0  0  0  0  0  0  0  0  0
   -4.7908   10.4797   -6.3075 C   0  0  0  0  0  0  0  0  0  0  0  0
   -5.1328   11.0249   -7.6306 N   0  0  0  0  0  0  0  0  0  0  0  0
   -6.0211   12.2677   -7.4678 C   0  0  0  0  0  0  0  0  0  0  0  0
   -7.2457   11.9211   -6.7025 C   0  0  0  0  0  0  0  0  0  0  0  0
   -6.8563   11.3905   -5.4105 O   0  0  0  0  0  0  0  0  0  0  0  0
   -5.1190    7.7389   -1.8728 O   0  0  0  0  0  0  0  0  0  0  0  0
   -2.2947    7.8178   -1.6775 C   0  0  0  0  0  0  0  0  0  0  0  0
   -1.5158    9.1184   -1.3501 C   0  0  0  0  0  0  0  0  0  0  0  0
   -0.7632    9.6002   -2.5716 C   0  0  0  0  0  0  0  0  0  0  0  0
   -0.7119    9.1537   -5.8117 O   0  0  0  0  0  0  0  0  0  0  0  0
   -1.8710   12.0888   -8.8940 C   0  0  0  0  0  0  0  0  0  0  0  0
   -1.6732   11.2516   -9.9848 C   0  0  0  0  0  0  0  0  0  0  0  0
   -2.6543   10.2774  -10.2905 C   0  0  0  0  0  0  0  0  0  0  0  0
   -3.7822   10.2011   -9.4871 C   0  0  0  0  0  0  0  0  0  0  0  0
   -3.9692   11.0964   -8.4110 C   0  0  0  0  0  0  0  0  0  0  0  0
   -2.9616   12.0227   -8.1250 C   0  0  0  0  0  0  0  0  0  0  0  0
   -8.8531    7.7633   -9.2397 F   0  0  0  0  0  0  0  0  0  0  0  0
  1  2  1  0  0  0  0
  2  3  1  0  0  0  0
  2  5  1  0  0  0  0
  3  4  1  0  0  0  0
  5  6  4  0  0  0  0
  5 10  4  0  0  0  0
  6  7  4  0  0  0  0
  7  8  4  0  0  0  0
  8  9  4  0  0  0  0
  9 10  4  0  0  0  0
 10 11  1  0  0  0  0
 11 12  4  0  0  0  0
 11 15  4  0  0  0  0
 12 13  1  0  0  0  0
 12 68  4  0  0  0  0
 13 14  1  0  0  0  0
 15 16  1  0  0  0  0
 15 67  4  0  0  0  0
 16 17  1  0  0  0  0
 17 18  1  0  0  0  0
 17 19  1  0  0  0  0
 17 20  1  0  0  0  0
 20 21  1  0  0  0  0
 21 22  1  0  0  0  0
 22 23  1  0  0  0  0
 22 66  2  0  0  0  0
 23 24  1  0  0  0  0
 23 65  1  0  0  0  0
 24 25  1  0  0  0  0
 25 26  1  0  0  0  0
 25 63  1  0  0  0  0
 26 27  1  0  0  0  0
 26 62  2  0  0  0  0
 27 28  1  0  0  0  0
 27 55  1  0  0  0  0
 28 29  1  0  0  0  0
 29 30  1  0  0  0  0
 29 54  2  0  0  0  0
 30 31  1  0  0  0  0
 30 34  1  0  0  0  0
 31 32  1  0  0  0  0
 31 33  1  0  0  0  0
 34 35  1  0  0  0  0
 34 53  1  0  0  0  0
 35 36  1  0  0  0  0
 35 52  2  0  0  0  0
 36 37  1  0  0  0  0
 36 51  1  0  0  0  0
 36 73  1  0  0  0  0
 37 38  1  0  0  0  0
 38 39  1  0  0  0  0
 39 40  1  0  0  0  0
 39 50  1  0  0  0  0
 40 41  1  0  0  0  0
 40 49  2  0  0  0  0
 41 42  1  0  0  0  0
 42 43  1  0  0  0  0
 43 44  1  0  0  0  0
 43 47  1  0  0  0  0
 43 48  1  0  0  0  0
 44 45  1  0  0  0  0
 44 46  1  0  0  0  0
 50 51  1  0  0  0  0
 55 56  1  0  0  0  0
 56 57  1  0  0  0  0
 56 61  1  0  0  0  0
 57 58  1  0  0  0  0
 58 59  1  0  0  0  0
 58 71  1  0  0  0  0
 59 60  1  0  0  0  0
 60 61  1  0  0  0  0
 63 64  1  0  0  0  0
 64 65  1  0  0  0  0
 67 68  4  0  0  0  0
 67 72  4  0  0  0  0
 68 69  4  0  0  0  0
 69 70  4  0  0  0  0
 70 71  4  0  0  0  0
 71 72  4  0  0  0  0
M  END
$$$$
