mol_ETKDG0_158
  PyMOL3.1          3D                             0

 73 79  0  0  0  0  0  0  0  0999 V2000
   -0.1302   16.7786  -10.8573 C   0  0  0  0  0  0  0  0  0  0  0  0
   -0.1536   15.3218  -11.2910 C   0  0  0  0  0  0  0  0  0  0  0  0
   -0.3077   15.1543  -12.6781 O   0  0  0  0  0  0  0  0  0  0  0  0
   -1.5839   14.7252  -13.1363 C   0  0  0  0  0  0  0  0  0  0  0  0
    1.0834   14.6131  -10.8939 C   0  0  0  0  0  0  0  0  0  0  0  0
    2.2510   15.1627  -11.2031 N   0  0  0  0  0  0  0  0  0  0  0  0
    3.4016   14.5333  -10.8939 C   0  0  0  0  0  0  0  0  0  0  0  0
    3.3983   13.3101  -10.2289 C   0  0  0  0  0  0  0  0  0  0  0  0
    2.2007   12.7557   -9.9072 C   0  0  0  0  0  0  0  0  0  0  0  0
    1.0416   13.3988  -10.2500 C   0  0  0  0  0  0  0  0  0  0  0  0
   -0.2145   12.8105   -9.8865 C   0  0  0  0  0  0  0  0  0  0  0  0
   -0.8874   11.8930  -10.6315 N   0  0  0  0  0  0  0  0  0  0  0  0
   -0.4684   11.2935  -11.9025 C   0  0  0  0  0  0  0  0  0  0  0  0
    0.1080    9.8963  -11.6591 C   0  0  0  0  0  0  0  0  0  0  0  0
   -0.9649   13.1277   -8.7633 C   0  0  0  0  0  0  0  0  0  0  0  0
   -0.6861   14.0916   -7.6538 C   0  0  0  0  0  0  0  0  0  0  0  0
    0.0302   13.4976   -6.4153 C   0  0  0  0  0  0  0  0  0  0  0  0
   -0.5460   14.1592   -5.1616 C   0  0  0  0  0  0  0  0  0  0  0  0
    1.5444   13.7852   -6.4698 C   0  0  0  0  0  0  0  0  0  0  0  0
   -0.0739   12.0613   -6.3000 C   0  0  0  0  0  0  0  0  0  0  0  0
   -0.7270   11.4849   -5.1437 O   0  0  0  0  0  0  0  0  0  0  0  0
   -1.0146   10.1111   -5.0395 C   0  0  0  0  0  0  0  0  0  0  0  0
   -1.7270    9.7632   -3.7789 C   0  0  0  0  0  0  0  0  0  0  0  0
   -2.4520    8.5192   -3.9929 N   0  0  0  0  0  0  0  0  0  0  0  0
   -3.1211    8.0657   -2.8845 N   0  0  0  0  0  0  0  0  0  0  0  0
   -4.4844    7.9820   -2.8710 C   0  0  0  0  0  0  0  0  0  0  0  0
   -5.2053    8.3463   -4.1399 C   0  0  0  0  0  0  0  0  0  0  0  0
   -6.3843    7.5386   -4.3611 N   0  0  0  0  0  0  0  0  0  0  0  0
   -6.4470    6.5731   -5.2794 C   0  0  0  0  0  0  0  0  0  0  0  0
   -7.8109    5.9825   -5.4228 C   0  0  0  0  0  0  0  0  0  0  0  0
   -7.8663    4.4669   -5.0503 C   0  0  0  0  0  0  0  0  0  0  0  0
   -9.2558    3.9114   -5.3113 C   0  0  0  0  0  0  0  0  0  0  0  0
   -7.5180    4.2794   -3.5659 C   0  0  0  0  0  0  0  0  0  0  0  0
   -8.2858    6.2088   -6.7635 N   0  0  0  0  0  0  0  0  0  0  0  0
   -9.2761    7.1198   -6.9316 C   0  0  0  0  0  0  0  0  0  0  0  0
  -10.0191    7.1964   -8.2382 C   0  0  0  0  0  0  0  0  0  0  0  0
  -11.3364    7.9517   -8.0508 C   0  0  0  0  0  0  0  0  0  0  0  0
  -12.2177    7.8148   -9.2439 C   0  0  0  0  0  0  0  0  0  0  0  0
  -12.3389    6.3958   -9.5894 N   0  0  0  0  0  0  0  0  0  0  0  0
  -13.4605    5.6282   -9.4953 C   0  0  0  0  0  0  0  0  0  0  0  0
  -14.5790    6.1403   -8.8654 C   0  0  0  0  0  0  0  0  0  0  0  0
  -15.5399    6.4942   -8.3713 C   0  0  0  0  0  0  0  0  0  0  0  0
  -16.6666    7.0213   -7.6327 C   0  0  0  0  0  0  0  0  0  0  0  0
  -16.1940    8.0556   -6.6977 N   0  0  0  0  0  0  0  0  0  0  0  0
  -15.1616    7.5784   -5.7546 C   0  0  0  0  0  0  0  0  0  0  0  0
  -15.7703    9.3112   -7.3550 C   0  0  0  0  0  0  0  0  0  0  0  0
  -17.3186    5.8856   -6.8289 C   0  0  0  0  0  0  0  0  0  0  0  0
  -17.6588    7.6151   -8.6324 C   0  0  0  0  0  0  0  0  0  0  0  0
  -13.4817    4.4749   -9.9255 O   0  0  0  0  0  0  0  0  0  0  0  0
  -11.1393    5.7192   -9.8975 C   0  0  0  0  0  0  0  0  0  0  0  0
  -10.3824    5.7690   -8.6191 C   0  0  0  0  0  0  0  0  0  0  0  0
   -9.6102    7.8685   -5.9987 O   0  0  0  0  0  0  0  0  0  0  0  0
   -7.6377    5.4357   -7.8537 C   0  0  0  0  0  0  0  0  0  0  0  0
   -5.4946    6.2289   -5.9594 O   0  0  0  0  0  0  0  0  0  0  0  0
   -5.6440    9.8376   -4.0050 C   0  0  0  0  0  0  0  0  0  0  0  0
   -6.1182   10.3990   -5.3241 C   0  0  0  0  0  0  0  0  0  0  0  0
   -4.9122   10.6510   -6.1867 C   0  0  0  0  0  0  0  0  0  0  0  0
   -5.3137   11.3473   -7.4251 N   0  0  0  0  0  0  0  0  0  0  0  0
   -6.1117   12.6156   -7.0874 C   0  0  0  0  0  0  0  0  0  0  0  0
   -7.2988   12.2592   -6.2674 C   0  0  0  0  0  0  0  0  0  0  0  0
   -6.8554   11.5975   -5.0682 O   0  0  0  0  0  0  0  0  0  0  0  0
   -5.1162    7.7104   -1.8743 O   0  0  0  0  0  0  0  0  0  0  0  0
   -2.2744    7.8057   -1.7123 C   0  0  0  0  0  0  0  0  0  0  0  0
   -1.4964    9.0852   -1.3886 C   0  0  0  0  0  0  0  0  0  0  0  0
   -0.7537    9.5881   -2.6082 C   0  0  0  0  0  0  0  0  0  0  0  0
   -0.7645    9.1859   -5.8543 O   0  0  0  0  0  0  0  0  0  0  0  0
   -2.0903   12.3443   -8.8548 C   0  0  0  0  0  0  0  0  0  0  0  0
   -2.0196   11.5809  -10.0065 C   0  0  0  0  0  0  0  0  0  0  0  0
   -3.0776   10.6882  -10.3125 C   0  0  0  0  0  0  0  0  0  0  0  0
   -4.1555   10.6156   -9.4250 C   0  0  0  0  0  0  0  0  0  0  0  0
   -4.2079   11.4291   -8.2827 C   0  0  0  0  0  0  0  0  0  0  0  0
   -3.1329   12.2812   -8.0053 C   0  0  0  0  0  0  0  0  0  0  0  0
   -9.2255    7.8012   -9.2047 F   0  0  0  0  0  0  0  0  0  0  0  0
  1  2  1  0  0  0  0
  2  3  1  0  0  0  0
  2  5  1  0  0  0  0
  3  4  1  0  0  0  0
  5  6  4  0  0  0  0
  5 10  4  0  0  0  0
  6  7  4  0  0  0  0
  7  8  4  0  0  0  0
  8  9  4  0  0  0  0
  9 10  4  0  0  0  0
 10 11  1  0  0  0  0
 11 12  4  0  0  0  0
 11 15  4  0  0  0  0
 12 13  1  0  0  0  0
 12 68  4  0  0  0  0
 13 14  1  0  0  0  0
 15 16  1  0  0  0  0
 15 67  4  0  0  0  0
 16 17  1  0  0  0  0
 17 18  1  0  0  0  0
 17 19  1  0  0  0  0
 17 20  1  0  0  0  0
 20 21  1  0  0  0  0
 21 22  1  0  0  0  0
 22 23  1  0  0  0  0
 22 66  2  0  0  0  0
 23 24  1  0  0  0  0
 23 65  1  0  0  0  0
 24 25  1  0  0  0  0
 25 26  1  0  0  0  0
 25 63  1  0  0  0  0
 26 27  1  0  0  0  0
 26 62  2  0  0  0  0
 27 28  1  0  0  0  0
 27 55  1  0  0  0  0
 28 29  1  0  0  0  0
 29 30  1  0  0  0  0
 29 54  2  0  0  0  0
 30 31  1  0  0  0  0
 30 34  1  0  0  0  0
 31 32  1  0  0  0  0
 31 33  1  0  0  0  0
 34 35  1  0  0  0  0
 34 53  1  0  0  0  0
 35 36  1  0  0  0  0
 35 52  2  0  0  0  0
 36 37  1  0  0  0  0
 36 51  1  0  0  0  0
 36 73  1  0  0  0  0
 37 38  1  0  0  0  0
 38 39  1  0  0  0  0
 39 40  1  0  0  0  0
 39 50  1  0  0  0  0
 40 41  1  0  0  0  0
 40 49  2  0  0  0  0
 41 42  1  0  0  0  0
 42 43  1  0  0  0  0
 43 44  1  0  0  0  0
 43 47  1  0  0  0  0
 43 48  1  0  0  0  0
 44 45  1  0  0  0  0
 44 46  1  0  0  0  0
 50 51  1  0  0  0  0
 55 56  1  0  0  0  0
 56 57  1  0  0  0  0
 56 61  1  0  0  0  0
 57 58  1  0  0  0  0
 58 59  1  0  0  0  0
 58 71  1  0  0  0  0
 59 60  1  0  0  0  0
 60 61  1  0  0  0  0
 63 64  1  0  0  0  0
 64 65  1  0  0  0  0
 67 68  4  0  0  0  0
 67 72  4  0  0  0  0
 68 69  4  0  0  0  0
 69 70  4  0  0  0  0
 70 71  4  0  0  0  0
 71 72  4  0  0  0  0
M  END
$$$$
