mol_ETKDG3_90
  PyMOL3.1          3D                             0

 73 79  0  0  0  0  0  0  0  0999 V2000
   -0.0894   16.4354  -11.4745 C   0  0  0  0  0  0  0  0  0  0  0  0
   -0.1336   14.9240  -11.5549 C   0  0  0  0  0  0  0  0  0  0  0  0
   -0.4133   14.4237  -12.8270 O   0  0  0  0  0  0  0  0  0  0  0  0
   -1.7792   14.3115  -13.1984 C   0  0  0  0  0  0  0  0  0  0  0  0
    1.1321   14.3058  -11.1148 C   0  0  0  0  0  0  0  0  0  0  0  0
    2.2834   14.8819  -11.4409 N   0  0  0  0  0  0  0  0  0  0  0  0
    3.4558   14.3275  -11.0893 C   0  0  0  0  0  0  0  0  0  0  0  0
    3.4923   13.1401  -10.3525 C   0  0  0  0  0  0  0  0  0  0  0  0
    2.3104   12.5512  -10.0169 C   0  0  0  0  0  0  0  0  0  0  0  0
    1.1369   13.1232  -10.4146 C   0  0  0  0  0  0  0  0  0  0  0  0
   -0.1052   12.5037  -10.0449 C   0  0  0  0  0  0  0  0  0  0  0  0
   -0.7122   11.5043  -10.7457 N   0  0  0  0  0  0  0  0  0  0  0  0
   -0.2343   10.8372  -11.9629 C   0  0  0  0  0  0  0  0  0  0  0  0
    0.3711    9.4743  -11.6139 C   0  0  0  0  0  0  0  0  0  0  0  0
   -0.9008   12.8675   -8.9744 C   0  0  0  0  0  0  0  0  0  0  0  0
   -0.7073   13.9145   -7.9237 C   0  0  0  0  0  0  0  0  0  0  0  0
   -0.0382   13.4295   -6.6081 C   0  0  0  0  0  0  0  0  0  0  0  0
   -0.7418   14.1173   -5.4321 C   0  0  0  0  0  0  0  0  0  0  0  0
    1.4442   13.8577   -6.6055 C   0  0  0  0  0  0  0  0  0  0  0  0
   -0.0220   12.0044   -6.4010 C   0  0  0  0  0  0  0  0  0  0  0  0
   -0.6959   11.4523   -5.2345 O   0  0  0  0  0  0  0  0  0  0  0  0
   -0.9747   10.0822   -5.0983 C   0  0  0  0  0  0  0  0  0  0  0  0
   -1.6887    9.7514   -3.8328 C   0  0  0  0  0  0  0  0  0  0  0  0
   -2.3917    8.4871   -4.0237 N   0  0  0  0  0  0  0  0  0  0  0  0
   -3.0595    8.0502   -2.9036 N   0  0  0  0  0  0  0  0  0  0  0  0
   -4.4187    7.9475   -2.8907 C   0  0  0  0  0  0  0  0  0  0  0  0
   -5.1380    8.2658   -4.1767 C   0  0  0  0  0  0  0  0  0  0  0  0
   -6.3256    7.4531   -4.3616 N   0  0  0  0  0  0  0  0  0  0  0  0
   -6.4393    6.4897   -5.2864 C   0  0  0  0  0  0  0  0  0  0  0  0
   -7.8249    5.9412   -5.4319 C   0  0  0  0  0  0  0  0  0  0  0  0
   -7.9532    4.4289   -5.1087 C   0  0  0  0  0  0  0  0  0  0  0  0
   -9.3876    3.9605   -5.3409 C   0  0  0  0  0  0  0  0  0  0  0  0
   -7.5649    4.1776   -3.6444 C   0  0  0  0  0  0  0  0  0  0  0  0
   -8.2829    6.2768   -6.7630 N   0  0  0  0  0  0  0  0  0  0  0  0
   -9.0547    7.3932   -6.8898 C   0  0  0  0  0  0  0  0  0  0  0  0
   -9.6991    7.7452   -8.2081 C   0  0  0  0  0  0  0  0  0  0  0  0
  -11.1760    8.0049   -7.9771 C   0  0  0  0  0  0  0  0  0  0  0  0
  -11.7848    8.3202   -9.2669 C   0  0  0  0  0  0  0  0  0  0  0  0
  -11.0651    9.4353   -9.8937 N   0  0  0  0  0  0  0  0  0  0  0  0
  -11.7136   10.5621  -10.2113 C   0  0  0  0  0  0  0  0  0  0  0  0
  -13.0162   10.7245   -9.7166 C   0  0  0  0  0  0  0  0  0  0  0  0
  -14.1038   10.8745   -9.3571 C   0  0  0  0  0  0  0  0  0  0  0  0
  -15.4199   10.9883   -8.7592 C   0  0  0  0  0  0  0  0  0  0  0  0
  -15.7165    9.7891   -7.9451 N   0  0  0  0  0  0  0  0  0  0  0  0
  -14.8089    9.6133   -6.7940 C   0  0  0  0  0  0  0  0  0  0  0  0
  -15.8882    8.5440   -8.7293 C   0  0  0  0  0  0  0  0  0  0  0  0
  -15.4688   12.2404   -7.8711 C   0  0  0  0  0  0  0  0  0  0  0  0
  -16.4533   11.1031   -9.8838 C   0  0  0  0  0  0  0  0  0  0  0  0
  -11.1619   11.4101  -10.8819 O   0  0  0  0  0  0  0  0  0  0  0  0
   -9.6379    9.2963  -10.1186 C   0  0  0  0  0  0  0  0  0  0  0  0
   -8.9902    8.9618   -8.7974 C   0  0  0  0  0  0  0  0  0  0  0  0
   -9.2837    8.1226   -5.9112 O   0  0  0  0  0  0  0  0  0  0  0  0
   -7.8169    5.4178   -7.8747 C   0  0  0  0  0  0  0  0  0  0  0  0
   -5.5000    6.1492   -5.9983 O   0  0  0  0  0  0  0  0  0  0  0  0
   -5.5801    9.7564   -4.1262 C   0  0  0  0  0  0  0  0  0  0  0  0
   -6.0451   10.2116   -5.4970 C   0  0  0  0  0  0  0  0  0  0  0  0
   -4.8251   10.4932   -6.3328 C   0  0  0  0  0  0  0  0  0  0  0  0
   -5.2237   11.0215   -7.6558 N   0  0  0  0  0  0  0  0  0  0  0  0
   -6.1143   12.2441   -7.4832 C   0  0  0  0  0  0  0  0  0  0  0  0
   -7.3156   11.8747   -6.6587 C   0  0  0  0  0  0  0  0  0  0  0  0
   -6.8626   11.3730   -5.3714 O   0  0  0  0  0  0  0  0  0  0  0  0
   -5.0527    7.6940   -1.8922 O   0  0  0  0  0  0  0  0  0  0  0  0
   -2.2222    7.8174   -1.7378 C   0  0  0  0  0  0  0  0  0  0  0  0
   -1.4549    9.1347   -1.4248 C   0  0  0  0  0  0  0  0  0  0  0  0
   -0.7192    9.6132   -2.6607 C   0  0  0  0  0  0  0  0  0  0  0  0
   -0.7164    9.1454   -5.8968 O   0  0  0  0  0  0  0  0  0  0  0  0
   -1.9958   12.0403   -9.0430 C   0  0  0  0  0  0  0  0  0  0  0  0
   -1.8552   11.1935  -10.1375 C   0  0  0  0  0  0  0  0  0  0  0  0
   -2.8758   10.2329  -10.4110 C   0  0  0  0  0  0  0  0  0  0  0  0
   -3.9707   10.1866   -9.5655 C   0  0  0  0  0  0  0  0  0  0  0  0
   -4.0942   11.0896   -8.4815 C   0  0  0  0  0  0  0  0  0  0  0  0
   -3.0802   12.0002   -8.2285 C   0  0  0  0  0  0  0  0  0  0  0  0
   -9.6080    6.7428   -9.1344 F   0  0  0  0  0  0  0  0  0  0  0  0
  1  2  1  0  0  0  0
  2  3  1  0  0  0  0
  2  5  1  0  0  0  0
  3  4  1  0  0  0  0
  5  6  4  0  0  0  0
  5 10  4  0  0  0  0
  6  7  4  0  0  0  0
  7  8  4  0  0  0  0
  8  9  4  0  0  0  0
  9 10  4  0  0  0  0
 10 11  1  0  0  0  0
 11 12  4  0  0  0  0
 11 15  4  0  0  0  0
 12 13  1  0  0  0  0
 12 68  4  0  0  0  0
 13 14  1  0  0  0  0
 15 16  1  0  0  0  0
 15 67  4  0  0  0  0
 16 17  1  0  0  0  0
 17 18  1  0  0  0  0
 17 19  1  0  0  0  0
 17 20  1  0  0  0  0
 20 21  1  0  0  0  0
 21 22  1  0  0  0  0
 22 23  1  0  0  0  0
 22 66  2  0  0  0  0
 23 24  1  0  0  0  0
 23 65  1  0  0  0  0
 24 25  1  0  0  0  0
 25 26  1  0  0  0  0
 25 63  1  0  0  0  0
 26 27  1  0  0  0  0
 26 62  2  0  0  0  0
 27 28  1  0  0  0  0
 27 55  1  0  0  0  0
 28 29  1  0  0  0  0
 29 30  1  0  0  0  0
 29 54  2  0  0  0  0
 30 31  1  0  0  0  0
 30 34  1  0  0  0  0
 31 32  1  0  0  0  0
 31 33  1  0  0  0  0
 34 35  1  0  0  0  0
 34 53  1  0  0  0  0
 35 36  1  0  0  0  0
 35 52  2  0  0  0  0
 36 37  1  0  0  0  0
 36 51  1  0  0  0  0
 36 73  1  0  0  0  0
 37 38  1  0  0  0  0
 38 39  1  0  0  0  0
 39 40  1  0  0  0  0
 39 50  1  0  0  0  0
 40 41  1  0  0  0  0
 40 49  2  0  0  0  0
 41 42  1  0  0  0  0
 42 43  1  0  0  0  0
 43 44  1  0  0  0  0
 43 47  1  0  0  0  0
 43 48  1  0  0  0  0
 44 45  1  0  0  0  0
 44 46  1  0  0  0  0
 50 51  1  0  0  0  0
 55 56  1  0  0  0  0
 56 57  1  0  0  0  0
 56 61  1  0  0  0  0
 57 58  1  0  0  0  0
 58 59  1  0  0  0  0
 58 71  1  0  0  0  0
 59 60  1  0  0  0  0
 60 61  1  0  0  0  0
 63 64  1  0  0  0  0
 64 65  1  0  0  0  0
 67 68  4  0  0  0  0
 67 72  4  0  0  0  0
 68 69  4  0  0  0  0
 69 70  4  0  0  0  0
 70 71  4  0  0  0  0
 71 72  4  0  0  0  0
M  END
$$$$
