mol_ETKDG0_170
  PyMOL3.1          3D                             0

 73 79  0  0  0  0  0  0  0  0999 V2000
   -0.0878   16.1630  -12.0786 C   0  0  0  0  0  0  0  0  0  0  0  0
   -0.2486   14.7264  -11.6596 C   0  0  0  0  0  0  0  0  0  0  0  0
   -0.8582   13.9597  -12.6462 O   0  0  0  0  0  0  0  0  0  0  0  0
   -2.2855   14.0123  -12.7061 C   0  0  0  0  0  0  0  0  0  0  0  0
    1.0489   14.0913  -11.2990 C   0  0  0  0  0  0  0  0  0  0  0  0
    2.1794   14.6695  -11.6775 N   0  0  0  0  0  0  0  0  0  0  0  0
    3.3676   14.1122  -11.3846 C   0  0  0  0  0  0  0  0  0  0  0  0
    3.4456   12.9294  -10.6589 C   0  0  0  0  0  0  0  0  0  0  0  0
    2.2951   12.3384  -10.2709 C   0  0  0  0  0  0  0  0  0  0  0  0
    1.1007   12.9027  -10.6056 C   0  0  0  0  0  0  0  0  0  0  0  0
   -0.1101   12.2759  -10.1861 C   0  0  0  0  0  0  0  0  0  0  0  0
   -0.7212   11.2588  -10.8516 N   0  0  0  0  0  0  0  0  0  0  0  0
   -0.2584   10.5526  -12.0534 C   0  0  0  0  0  0  0  0  0  0  0  0
    0.3767    9.2151  -11.6581 C   0  0  0  0  0  0  0  0  0  0  0  0
   -0.8806   12.6534   -9.0974 C   0  0  0  0  0  0  0  0  0  0  0  0
   -0.6594   13.7237   -8.0650 C   0  0  0  0  0  0  0  0  0  0  0  0
    0.0484   13.2672   -6.7605 C   0  0  0  0  0  0  0  0  0  0  0  0
   -0.5827   14.0077   -5.5870 C   0  0  0  0  0  0  0  0  0  0  0  0
    1.5508   13.6156   -6.8206 C   0  0  0  0  0  0  0  0  0  0  0  0
    0.0132   11.8583   -6.5133 C   0  0  0  0  0  0  0  0  0  0  0  0
   -0.6587   11.3539   -5.3147 O   0  0  0  0  0  0  0  0  0  0  0  0
   -0.9538    9.9905   -5.1280 C   0  0  0  0  0  0  0  0  0  0  0  0
   -1.6721    9.7011   -3.8555 C   0  0  0  0  0  0  0  0  0  0  0  0
   -2.3765    8.4358   -4.0210 N   0  0  0  0  0  0  0  0  0  0  0  0
   -3.0533    8.0201   -2.9006 N   0  0  0  0  0  0  0  0  0  0  0  0
   -4.4104    7.9102   -2.9010 C   0  0  0  0  0  0  0  0  0  0  0  0
   -5.1122    8.1903   -4.1964 C   0  0  0  0  0  0  0  0  0  0  0  0
   -6.3003    7.3865   -4.3771 N   0  0  0  0  0  0  0  0  0  0  0  0
   -6.4005    6.4387   -5.3157 C   0  0  0  0  0  0  0  0  0  0  0  0
   -7.7764    5.8652   -5.4358 C   0  0  0  0  0  0  0  0  0  0  0  0
   -7.8551    4.3560   -5.0835 C   0  0  0  0  0  0  0  0  0  0  0  0
   -9.2629    3.8295   -5.3339 C   0  0  0  0  0  0  0  0  0  0  0  0
   -7.4976    4.1562   -3.6027 C   0  0  0  0  0  0  0  0  0  0  0  0
   -8.2790    6.1423   -6.7598 N   0  0  0  0  0  0  0  0  0  0  0  0
   -9.1297    7.1936   -6.8969 C   0  0  0  0  0  0  0  0  0  0  0  0
   -9.8837    7.3841   -8.1792 C   0  0  0  0  0  0  0  0  0  0  0  0
  -10.7757    8.6196   -8.1207 C   0  0  0  0  0  0  0  0  0  0  0  0
  -11.6350    8.6781   -9.3288 C   0  0  0  0  0  0  0  0  0  0  0  0
  -12.3588    7.4080   -9.4488 N   0  0  0  0  0  0  0  0  0  0  0  0
  -13.6956    7.2691   -9.3490 C   0  0  0  0  0  0  0  0  0  0  0  0
  -14.4553    8.3856   -9.0770 C   0  0  0  0  0  0  0  0  0  0  0  0
  -15.1670    9.2442   -8.8784 C   0  0  0  0  0  0  0  0  0  0  0  0
  -15.9823   10.3819   -8.5454 C   0  0  0  0  0  0  0  0  0  0  0  0
  -15.1984   11.3384   -7.7412 N   0  0  0  0  0  0  0  0  0  0  0  0
  -14.6126   10.7486   -6.5206 C   0  0  0  0  0  0  0  0  0  0  0  0
  -14.1914   12.0984   -8.5106 C   0  0  0  0  0  0  0  0  0  0  0  0
  -17.1866    9.9067   -7.7233 C   0  0  0  0  0  0  0  0  0  0  0  0
  -16.4378   11.0381   -9.8515 C   0  0  0  0  0  0  0  0  0  0  0  0
  -14.2277    6.1753   -9.4750 O   0  0  0  0  0  0  0  0  0  0  0  0
  -11.5709    6.2217   -9.5696 C   0  0  0  0  0  0  0  0  0  0  0  0
  -10.7644    6.1536   -8.3241 C   0  0  0  0  0  0  0  0  0  0  0  0
   -9.3326    7.9705   -5.9428 O   0  0  0  0  0  0  0  0  0  0  0  0
   -7.8059    5.2745   -7.8748 C   0  0  0  0  0  0  0  0  0  0  0  0
   -5.4753    6.1027   -6.0403 O   0  0  0  0  0  0  0  0  0  0  0  0
   -5.5426    9.6846   -4.1669 C   0  0  0  0  0  0  0  0  0  0  0  0
   -5.9980   10.1315   -5.5352 C   0  0  0  0  0  0  0  0  0  0  0  0
   -4.7804   10.3291   -6.3936 C   0  0  0  0  0  0  0  0  0  0  0  0
   -5.1696   10.8756   -7.7006 N   0  0  0  0  0  0  0  0  0  0  0  0
   -6.0107   12.1514   -7.4985 C   0  0  0  0  0  0  0  0  0  0  0  0
   -7.1985   11.8527   -6.6588 C   0  0  0  0  0  0  0  0  0  0  0  0
   -6.7540   11.3271   -5.3964 O   0  0  0  0  0  0  0  0  0  0  0  0
   -5.0502    7.6692   -1.9035 O   0  0  0  0  0  0  0  0  0  0  0  0
   -2.2169    7.8147   -1.7124 C   0  0  0  0  0  0  0  0  0  0  0  0
   -1.4638    9.1220   -1.4286 C   0  0  0  0  0  0  0  0  0  0  0  0
   -0.7092    9.5884   -2.6656 C   0  0  0  0  0  0  0  0  0  0  0  0
   -0.7030    9.0235   -5.8956 O   0  0  0  0  0  0  0  0  0  0  0  0
   -1.9611   11.8254   -9.1405 C   0  0  0  0  0  0  0  0  0  0  0  0
   -1.8424   10.9613  -10.2202 C   0  0  0  0  0  0  0  0  0  0  0  0
   -2.8547   10.0053  -10.4626 C   0  0  0  0  0  0  0  0  0  0  0  0
   -3.9374    9.9790   -9.5945 C   0  0  0  0  0  0  0  0  0  0  0  0
   -4.0452   10.8993   -8.5347 C   0  0  0  0  0  0  0  0  0  0  0  0
   -3.0057   11.8009   -8.3159 C   0  0  0  0  0  0  0  0  0  0  0  0
   -9.0053    7.5267   -9.2508 F   0  0  0  0  0  0  0  0  0  0  0  0
  1  2  1  0  0  0  0
  2  3  1  0  0  0  0
  2  5  1  0  0  0  0
  3  4  1  0  0  0  0
  5  6  4  0  0  0  0
  5 10  4  0  0  0  0
  6  7  4  0  0  0  0
  7  8  4  0  0  0  0
  8  9  4  0  0  0  0
  9 10  4  0  0  0  0
 10 11  1  0  0  0  0
 11 12  4  0  0  0  0
 11 15  4  0  0  0  0
 12 13  1  0  0  0  0
 12 68  4  0  0  0  0
 13 14  1  0  0  0  0
 15 16  1  0  0  0  0
 15 67  4  0  0  0  0
 16 17  1  0  0  0  0
 17 18  1  0  0  0  0
 17 19  1  0  0  0  0
 17 20  1  0  0  0  0
 20 21  1  0  0  0  0
 21 22  1  0  0  0  0
 22 23  1  0  0  0  0
 22 66  2  0  0  0  0
 23 24  1  0  0  0  0
 23 65  1  0  0  0  0
 24 25  1  0  0  0  0
 25 26  1  0  0  0  0
 25 63  1  0  0  0  0
 26 27  1  0  0  0  0
 26 62  2  0  0  0  0
 27 28  1  0  0  0  0
 27 55  1  0  0  0  0
 28 29  1  0  0  0  0
 29 30  1  0  0  0  0
 29 54  2  0  0  0  0
 30 31  1  0  0  0  0
 30 34  1  0  0  0  0
 31 32  1  0  0  0  0
 31 33  1  0  0  0  0
 34 35  1  0  0  0  0
 34 53  1  0  0  0  0
 35 36  1  0  0  0  0
 35 52  2  0  0  0  0
 36 37  1  0  0  0  0
 36 51  1  0  0  0  0
 36 73  1  0  0  0  0
 37 38  1  0  0  0  0
 38 39  1  0  0  0  0
 39 40  1  0  0  0  0
 39 50  1  0  0  0  0
 40 41  1  0  0  0  0
 40 49  2  0  0  0  0
 41 42  1  0  0  0  0
 42 43  1  0  0  0  0
 43 44  1  0  0  0  0
 43 47  1  0  0  0  0
 43 48  1  0  0  0  0
 44 45  1  0  0  0  0
 44 46  1  0  0  0  0
 50 51  1  0  0  0  0
 55 56  1  0  0  0  0
 56 57  1  0  0  0  0
 56 61  1  0  0  0  0
 57 58  1  0  0  0  0
 58 59  1  0  0  0  0
 58 71  1  0  0  0  0
 59 60  1  0  0  0  0
 60 61  1  0  0  0  0
 63 64  1  0  0  0  0
 64 65  1  0  0  0  0
 67 68  4  0  0  0  0
 67 72  4  0  0  0  0
 68 69  4  0  0  0  0
 69 70  4  0  0  0  0
 70 71  4  0  0  0  0
 71 72  4  0  0  0  0
M  END
$$$$
