mol_ETKDG2_56
  PyMOL3.1          3D                             0

 73 79  0  0  0  0  0  0  0  0999 V2000
    0.0381   14.8377  -13.3725 C   0  0  0  0  0  0  0  0  0  0  0  0
   -0.0505   14.5773  -11.8839 C   0  0  0  0  0  0  0  0  0  0  0  0
   -0.4103   15.6986  -11.1322 O   0  0  0  0  0  0  0  0  0  0  0  0
   -1.7898   16.0348  -11.0740 C   0  0  0  0  0  0  0  0  0  0  0  0
    1.2167   14.0927  -11.3329 C   0  0  0  0  0  0  0  0  0  0  0  0
    2.3438   14.7070  -11.6747 N   0  0  0  0  0  0  0  0  0  0  0  0
    3.5193   14.2848  -11.1976 C   0  0  0  0  0  0  0  0  0  0  0  0
    3.5912   13.1790  -10.3466 C   0  0  0  0  0  0  0  0  0  0  0  0
    2.4395   12.5432  -10.0048 C   0  0  0  0  0  0  0  0  0  0  0  0
    1.2481   13.0061  -10.4934 C   0  0  0  0  0  0  0  0  0  0  0  0
    0.0223   12.3625  -10.1010 C   0  0  0  0  0  0  0  0  0  0  0  0
   -0.5522   11.3379  -10.7738 N   0  0  0  0  0  0  0  0  0  0  0  0
   -0.0475   10.6532  -11.9655 C   0  0  0  0  0  0  0  0  0  0  0  0
    0.5398    9.3059  -11.5570 C   0  0  0  0  0  0  0  0  0  0  0  0
   -0.7975   12.7325   -9.0353 C   0  0  0  0  0  0  0  0  0  0  0  0
   -0.6321   13.7887   -8.0023 C   0  0  0  0  0  0  0  0  0  0  0  0
    0.0346   13.3202   -6.6768 C   0  0  0  0  0  0  0  0  0  0  0  0
   -0.6608   14.0345   -5.5170 C   0  0  0  0  0  0  0  0  0  0  0  0
    1.5274   13.7198   -6.6748 C   0  0  0  0  0  0  0  0  0  0  0  0
    0.0327   11.9076   -6.4446 C   0  0  0  0  0  0  0  0  0  0  0  0
   -0.6455   11.3721   -5.2697 O   0  0  0  0  0  0  0  0  0  0  0  0
   -0.9345   10.0016   -5.1174 C   0  0  0  0  0  0  0  0  0  0  0  0
   -1.6510    9.6900   -3.8463 C   0  0  0  0  0  0  0  0  0  0  0  0
   -2.3702    8.4337   -4.0199 N   0  0  0  0  0  0  0  0  0  0  0  0
   -3.0496    8.0250   -2.8971 N   0  0  0  0  0  0  0  0  0  0  0  0
   -4.4099    7.9295   -2.8848 C   0  0  0  0  0  0  0  0  0  0  0  0
   -5.1156    8.2186   -4.1803 C   0  0  0  0  0  0  0  0  0  0  0  0
   -6.3092    7.4237   -4.3380 N   0  0  0  0  0  0  0  0  0  0  0  0
   -6.4406    6.4638   -5.2530 C   0  0  0  0  0  0  0  0  0  0  0  0
   -7.8219    5.9172   -5.3731 C   0  0  0  0  0  0  0  0  0  0  0  0
   -7.9407    4.4028   -5.0470 C   0  0  0  0  0  0  0  0  0  0  0  0
   -9.3786    3.9434   -5.2694 C   0  0  0  0  0  0  0  0  0  0  0  0
   -7.5408    4.1596   -3.5853 C   0  0  0  0  0  0  0  0  0  0  0  0
   -8.3241    6.2358   -6.6917 N   0  0  0  0  0  0  0  0  0  0  0  0
   -9.0952    7.3443   -6.8168 C   0  0  0  0  0  0  0  0  0  0  0  0
   -9.8216    7.6090   -8.1080 C   0  0  0  0  0  0  0  0  0  0  0  0
  -10.4928    8.9741   -8.0865 C   0  0  0  0  0  0  0  0  0  0  0  0
  -11.3083    9.1329   -9.3086 C   0  0  0  0  0  0  0  0  0  0  0  0
  -12.2409    8.0064   -9.3895 N   0  0  0  0  0  0  0  0  0  0  0  0
  -13.5787    8.1386   -9.2782 C   0  0  0  0  0  0  0  0  0  0  0  0
  -14.0838    9.3734   -8.8938 C   0  0  0  0  0  0  0  0  0  0  0  0
  -14.5784   10.3526   -8.5684 C   0  0  0  0  0  0  0  0  0  0  0  0
  -15.0728   11.6142   -8.0950 C   0  0  0  0  0  0  0  0  0  0  0  0
  -14.4451   11.9720   -6.8105 N   0  0  0  0  0  0  0  0  0  0  0  0
  -14.2597   10.8246   -5.9050 C   0  0  0  0  0  0  0  0  0  0  0  0
  -13.2177   12.7724   -6.9235 C   0  0  0  0  0  0  0  0  0  0  0  0
  -16.5808   11.5228   -7.8970 C   0  0  0  0  0  0  0  0  0  0  0  0
  -14.7367   12.6678   -9.1567 C   0  0  0  0  0  0  0  0  0  0  0  0
  -14.3194    7.1915   -9.4672 O   0  0  0  0  0  0  0  0  0  0  0  0
  -11.6679    6.6884   -9.4640 C   0  0  0  0  0  0  0  0  0  0  0  0
  -10.8776    6.5222   -8.2065 C   0  0  0  0  0  0  0  0  0  0  0  0
   -9.2477    8.1148   -5.8635 O   0  0  0  0  0  0  0  0  0  0  0  0
   -7.9266    5.3410   -7.8123 C   0  0  0  0  0  0  0  0  0  0  0  0
   -5.5204    6.1072   -5.9812 O   0  0  0  0  0  0  0  0  0  0  0  0
   -5.5397    9.7043   -4.1846 C   0  0  0  0  0  0  0  0  0  0  0  0
   -5.9605   10.1027   -5.5853 C   0  0  0  0  0  0  0  0  0  0  0  0
   -4.7176   10.3820   -6.3777 C   0  0  0  0  0  0  0  0  0  0  0  0
   -5.0857   10.8340   -7.7305 N   0  0  0  0  0  0  0  0  0  0  0  0
   -6.0178   12.0332   -7.6400 C   0  0  0  0  0  0  0  0  0  0  0  0
   -7.2395   11.6571   -6.8369 C   0  0  0  0  0  0  0  0  0  0  0  0
   -6.8158   11.2360   -5.5286 O   0  0  0  0  0  0  0  0  0  0  0  0
   -5.0476    7.6987   -1.8908 O   0  0  0  0  0  0  0  0  0  0  0  0
   -2.2228    7.8035   -1.7166 C   0  0  0  0  0  0  0  0  0  0  0  0
   -1.4356    9.1061   -1.4304 C   0  0  0  0  0  0  0  0  0  0  0  0
   -0.6825    9.5461   -2.6743 C   0  0  0  0  0  0  0  0  0  0  0  0
   -0.6817    9.0593   -5.9012 O   0  0  0  0  0  0  0  0  0  0  0  0
   -1.8650   11.8801   -9.0949 C   0  0  0  0  0  0  0  0  0  0  0  0
   -1.6906   11.0148  -10.1645 C   0  0  0  0  0  0  0  0  0  0  0  0
   -2.6811   10.0300  -10.4190 C   0  0  0  0  0  0  0  0  0  0  0  0
   -3.7852    9.9770   -9.5926 C   0  0  0  0  0  0  0  0  0  0  0  0
   -3.9516   10.9005   -8.5285 C   0  0  0  0  0  0  0  0  0  0  0  0
   -2.9579   11.8363   -8.2905 C   0  0  0  0  0  0  0  0  0  0  0  0
   -8.9370    7.5750   -9.1736 F   0  0  0  0  0  0  0  0  0  0  0  0
  1  2  1  0  0  0  0
  2  3  1  0  0  0  0
  2  5  1  0  0  0  0
  3  4  1  0  0  0  0
  5  6  4  0  0  0  0
  5 10  4  0  0  0  0
  6  7  4  0  0  0  0
  7  8  4  0  0  0  0
  8  9  4  0  0  0  0
  9 10  4  0  0  0  0
 10 11  1  0  0  0  0
 11 12  4  0  0  0  0
 11 15  4  0  0  0  0
 12 13  1  0  0  0  0
 12 68  4  0  0  0  0
 13 14  1  0  0  0  0
 15 16  1  0  0  0  0
 15 67  4  0  0  0  0
 16 17  1  0  0  0  0
 17 18  1  0  0  0  0
 17 19  1  0  0  0  0
 17 20  1  0  0  0  0
 20 21  1  0  0  0  0
 21 22  1  0  0  0  0
 22 23  1  0  0  0  0
 22 66  2  0  0  0  0
 23 24  1  0  0  0  0
 23 65  1  0  0  0  0
 24 25  1  0  0  0  0
 25 26  1  0  0  0  0
 25 63  1  0  0  0  0
 26 27  1  0  0  0  0
 26 62  2  0  0  0  0
 27 28  1  0  0  0  0
 27 55  1  0  0  0  0
 28 29  1  0  0  0  0
 29 30  1  0  0  0  0
 29 54  2  0  0  0  0
 30 31  1  0  0  0  0
 30 34  1  0  0  0  0
 31 32  1  0  0  0  0
 31 33  1  0  0  0  0
 34 35  1  0  0  0  0
 34 53  1  0  0  0  0
 35 36  1  0  0  0  0
 35 52  2  0  0  0  0
 36 37  1  0  0  0  0
 36 51  1  0  0  0  0
 36 73  1  0  0  0  0
 37 38  1  0  0  0  0
 38 39  1  0  0  0  0
 39 40  1  0  0  0  0
 39 50  1  0  0  0  0
 40 41  1  0  0  0  0
 40 49  2  0  0  0  0
 41 42  1  0  0  0  0
 42 43  1  0  0  0  0
 43 44  1  0  0  0  0
 43 47  1  0  0  0  0
 43 48  1  0  0  0  0
 44 45  1  0  0  0  0
 44 46  1  0  0  0  0
 50 51  1  0  0  0  0
 55 56  1  0  0  0  0
 56 57  1  0  0  0  0
 56 61  1  0  0  0  0
 57 58  1  0  0  0  0
 58 59  1  0  0  0  0
 58 71  1  0  0  0  0
 59 60  1  0  0  0  0
 60 61  1  0  0  0  0
 63 64  1  0  0  0  0
 64 65  1  0  0  0  0
 67 68  4  0  0  0  0
 67 72  4  0  0  0  0
 68 69  4  0  0  0  0
 69 70  4  0  0  0  0
 70 71  4  0  0  0  0
 71 72  4  0  0  0  0
M  END
$$$$
