mol_ETKDG2_60
  PyMOL3.1          3D                             0

 73 79  0  0  0  0  0  0  0  0999 V2000
    0.0196   16.7332  -11.2246 C   0  0  0  0  0  0  0  0  0  0  0  0
   -0.0646   15.2255  -11.2271 C   0  0  0  0  0  0  0  0  0  0  0  0
   -0.4529   14.7015  -12.4796 O   0  0  0  0  0  0  0  0  0  0  0  0
   -1.8469   14.5423  -12.6989 C   0  0  0  0  0  0  0  0  0  0  0  0
    1.2146   14.5802  -10.8751 C   0  0  0  0  0  0  0  0  0  0  0  0
    2.3529   15.1866  -11.1938 N   0  0  0  0  0  0  0  0  0  0  0  0
    3.5338   14.6148  -10.9253 C   0  0  0  0  0  0  0  0  0  0  0  0
    3.5991   13.3817  -10.2791 C   0  0  0  0  0  0  0  0  0  0  0  0
    2.4414   12.7582   -9.9445 C   0  0  0  0  0  0  0  0  0  0  0  0
    1.2494   13.3491  -10.2563 C   0  0  0  0  0  0  0  0  0  0  0  0
    0.0219   12.7023   -9.8831 C   0  0  0  0  0  0  0  0  0  0  0  0
   -0.5894   11.7205  -10.5991 N   0  0  0  0  0  0  0  0  0  0  0  0
   -0.1153   11.0750  -11.8271 C   0  0  0  0  0  0  0  0  0  0  0  0
    0.5017    9.7161  -11.4770 C   0  0  0  0  0  0  0  0  0  0  0  0
   -0.7664   13.0284   -8.7852 C   0  0  0  0  0  0  0  0  0  0  0  0
   -0.5528   14.0191   -7.6963 C   0  0  0  0  0  0  0  0  0  0  0  0
    0.1586   13.4582   -6.4276 C   0  0  0  0  0  0  0  0  0  0  0  0
   -0.4321   14.1535   -5.1994 C   0  0  0  0  0  0  0  0  0  0  0  0
    1.6694   13.7865   -6.4893 C   0  0  0  0  0  0  0  0  0  0  0  0
    0.0891   12.0319   -6.2660 C   0  0  0  0  0  0  0  0  0  0  0  0
   -0.6040   11.4753   -5.1135 O   0  0  0  0  0  0  0  0  0  0  0  0
   -0.9136   10.1051   -4.9988 C   0  0  0  0  0  0  0  0  0  0  0  0
   -1.6367    9.7670   -3.7394 C   0  0  0  0  0  0  0  0  0  0  0  0
   -2.3492    8.5142   -3.9436 N   0  0  0  0  0  0  0  0  0  0  0  0
   -3.0314    8.0808   -2.8319 N   0  0  0  0  0  0  0  0  0  0  0  0
   -4.3927    7.9901   -2.8278 C   0  0  0  0  0  0  0  0  0  0  0  0
   -5.1022    8.3301   -4.1140 C   0  0  0  0  0  0  0  0  0  0  0  0
   -6.2919    7.5358   -4.3202 N   0  0  0  0  0  0  0  0  0  0  0  0
   -6.4078    6.5983   -5.2624 C   0  0  0  0  0  0  0  0  0  0  0  0
   -7.7870    6.0381   -5.4003 C   0  0  0  0  0  0  0  0  0  0  0  0
   -7.8825    4.5204   -5.0701 C   0  0  0  0  0  0  0  0  0  0  0  0
   -9.3228    4.0438   -5.2571 C   0  0  0  0  0  0  0  0  0  0  0  0
   -7.4484    4.2758   -3.6155 C   0  0  0  0  0  0  0  0  0  0  0  0
   -8.2889    6.3277   -6.7236 N   0  0  0  0  0  0  0  0  0  0  0  0
   -9.0883    7.4206   -6.8821 C   0  0  0  0  0  0  0  0  0  0  0  0
   -9.8619    7.6035   -8.1674 C   0  0  0  0  0  0  0  0  0  0  0  0
  -10.2813    9.0419   -8.4148 C   0  0  0  0  0  0  0  0  0  0  0  0
  -11.1023    9.0801   -9.6527 C   0  0  0  0  0  0  0  0  0  0  0  0
  -12.2277    8.1398   -9.5148 N   0  0  0  0  0  0  0  0  0  0  0  0
  -13.5207    8.4883   -9.6377 C   0  0  0  0  0  0  0  0  0  0  0  0
  -13.8230    9.7258  -10.1785 C   0  0  0  0  0  0  0  0  0  0  0  0
  -14.2484   10.6698  -10.6747 C   0  0  0  0  0  0  0  0  0  0  0  0
  -14.6668   11.9001  -11.2549 C   0  0  0  0  0  0  0  0  0  0  0  0
  -15.9334   12.3080  -10.6095 N   0  0  0  0  0  0  0  0  0  0  0  0
  -15.8090   12.4571   -9.1324 C   0  0  0  0  0  0  0  0  0  0  0  0
  -17.0793   11.4228  -10.9648 C   0  0  0  0  0  0  0  0  0  0  0  0
  -13.5917   12.9842  -11.0423 C   0  0  0  0  0  0  0  0  0  0  0  0
  -14.8543   11.6671  -12.7604 C   0  0  0  0  0  0  0  0  0  0  0  0
  -14.4121    7.7313   -9.3116 O   0  0  0  0  0  0  0  0  0  0  0  0
  -11.9221    6.7570   -9.2157 C   0  0  0  0  0  0  0  0  0  0  0  0
  -11.0953    6.7247   -7.9981 C   0  0  0  0  0  0  0  0  0  0  0  0
   -9.2543    8.2229   -5.9524 O   0  0  0  0  0  0  0  0  0  0  0  0
   -7.8832    5.4123   -7.8172 C   0  0  0  0  0  0  0  0  0  0  0  0
   -5.4725    6.2575   -5.9829 O   0  0  0  0  0  0  0  0  0  0  0  0
   -5.5229    9.8133   -4.0210 C   0  0  0  0  0  0  0  0  0  0  0  0
   -5.9594   10.3347   -5.3706 C   0  0  0  0  0  0  0  0  0  0  0  0
   -4.7334   10.5515   -6.2150 C   0  0  0  0  0  0  0  0  0  0  0  0
   -5.0941   11.2035   -7.4822 N   0  0  0  0  0  0  0  0  0  0  0  0
   -5.9105   12.4784   -7.2025 C   0  0  0  0  0  0  0  0  0  0  0  0
   -7.1173   12.1418   -6.3932 C   0  0  0  0  0  0  0  0  0  0  0  0
   -6.6908   11.5370   -5.1634 O   0  0  0  0  0  0  0  0  0  0  0  0
   -5.0292    7.7283   -1.8401 O   0  0  0  0  0  0  0  0  0  0  0  0
   -2.2101    7.8345   -1.6534 C   0  0  0  0  0  0  0  0  0  0  0  0
   -1.4267    9.1364   -1.3352 C   0  0  0  0  0  0  0  0  0  0  0  0
   -0.6741    9.6090   -2.5611 C   0  0  0  0  0  0  0  0  0  0  0  0
   -0.6790    9.1803   -5.8154 O   0  0  0  0  0  0  0  0  0  0  0  0
   -1.8586   12.2056   -8.8698 C   0  0  0  0  0  0  0  0  0  0  0  0
   -1.7276   11.3952   -9.9839 C   0  0  0  0  0  0  0  0  0  0  0  0
   -2.7512   10.4490  -10.2670 C   0  0  0  0  0  0  0  0  0  0  0  0
   -3.8411   10.3874   -9.4140 C   0  0  0  0  0  0  0  0  0  0  0  0
   -3.9632   11.2642   -8.3042 C   0  0  0  0  0  0  0  0  0  0  0  0
   -2.9118   12.1475   -8.0511 C   0  0  0  0  0  0  0  0  0  0  0  0
   -9.1237    7.2347   -9.2648 F   0  0  0  0  0  0  0  0  0  0  0  0
  1  2  1  0  0  0  0
  2  3  1  0  0  0  0
  2  5  1  0  0  0  0
  3  4  1  0  0  0  0
  5  6  4  0  0  0  0
  5 10  4  0  0  0  0
  6  7  4  0  0  0  0
  7  8  4  0  0  0  0
  8  9  4  0  0  0  0
  9 10  4  0  0  0  0
 10 11  1  0  0  0  0
 11 12  4  0  0  0  0
 11 15  4  0  0  0  0
 12 13  1  0  0  0  0
 12 68  4  0  0  0  0
 13 14  1  0  0  0  0
 15 16  1  0  0  0  0
 15 67  4  0  0  0  0
 16 17  1  0  0  0  0
 17 18  1  0  0  0  0
 17 19  1  0  0  0  0
 17 20  1  0  0  0  0
 20 21  1  0  0  0  0
 21 22  1  0  0  0  0
 22 23  1  0  0  0  0
 22 66  2  0  0  0  0
 23 24  1  0  0  0  0
 23 65  1  0  0  0  0
 24 25  1  0  0  0  0
 25 26  1  0  0  0  0
 25 63  1  0  0  0  0
 26 27  1  0  0  0  0
 26 62  2  0  0  0  0
 27 28  1  0  0  0  0
 27 55  1  0  0  0  0
 28 29  1  0  0  0  0
 29 30  1  0  0  0  0
 29 54  2  0  0  0  0
 30 31  1  0  0  0  0
 30 34  1  0  0  0  0
 31 32  1  0  0  0  0
 31 33  1  0  0  0  0
 34 35  1  0  0  0  0
 34 53  1  0  0  0  0
 35 36  1  0  0  0  0
 35 52  2  0  0  0  0
 36 37  1  0  0  0  0
 36 51  1  0  0  0  0
 36 73  1  0  0  0  0
 37 38  1  0  0  0  0
 38 39  1  0  0  0  0
 39 40  1  0  0  0  0
 39 50  1  0  0  0  0
 40 41  1  0  0  0  0
 40 49  2  0  0  0  0
 41 42  1  0  0  0  0
 42 43  1  0  0  0  0
 43 44  1  0  0  0  0
 43 47  1  0  0  0  0
 43 48  1  0  0  0  0
 44 45  1  0  0  0  0
 44 46  1  0  0  0  0
 50 51  1  0  0  0  0
 55 56  1  0  0  0  0
 56 57  1  0  0  0  0
 56 61  1  0  0  0  0
 57 58  1  0  0  0  0
 58 59  1  0  0  0  0
 58 71  1  0  0  0  0
 59 60  1  0  0  0  0
 60 61  1  0  0  0  0
 63 64  1  0  0  0  0
 64 65  1  0  0  0  0
 67 68  4  0  0  0  0
 67 72  4  0  0  0  0
 68 69  4  0  0  0  0
 69 70  4  0  0  0  0
 70 71  4  0  0  0  0
 71 72  4  0  0  0  0
M  END
$$$$
