mol_ETKDG3_98
  PyMOL3.1          3D                             0

 73 79  0  0  0  0  0  0  0  0999 V2000
    0.1234   16.5758  -11.2520 C   0  0  0  0  0  0  0  0  0  0  0  0
   -0.0558   15.0733  -11.2727 C   0  0  0  0  0  0  0  0  0  0  0  0
   -0.5118   14.5776  -12.4954 O   0  0  0  0  0  0  0  0  0  0  0  0
   -1.9037   14.6271  -12.7537 C   0  0  0  0  0  0  0  0  0  0  0  0
    1.1974   14.3525  -10.9643 C   0  0  0  0  0  0  0  0  0  0  0  0
    2.3552   14.8973  -11.3056 N   0  0  0  0  0  0  0  0  0  0  0  0
    3.5129   14.2578  -11.0819 C   0  0  0  0  0  0  0  0  0  0  0  0
    3.5305   13.0068  -10.4586 C   0  0  0  0  0  0  0  0  0  0  0  0
    2.3406   12.4493  -10.1021 C   0  0  0  0  0  0  0  0  0  0  0  0
    1.1784   13.1078  -10.3680 C   0  0  0  0  0  0  0  0  0  0  0  0
   -0.0686   12.5110   -9.9762 C   0  0  0  0  0  0  0  0  0  0  0  0
   -0.7120   11.5366  -10.6800 N   0  0  0  0  0  0  0  0  0  0  0  0
   -0.2777   10.8750  -11.9147 C   0  0  0  0  0  0  0  0  0  0  0  0
    0.2757    9.4826  -11.5994 C   0  0  0  0  0  0  0  0  0  0  0  0
   -0.8298   12.8681   -8.8788 C   0  0  0  0  0  0  0  0  0  0  0  0
   -0.5988   13.8870   -7.8024 C   0  0  0  0  0  0  0  0  0  0  0  0
    0.1689   13.3604   -6.5569 C   0  0  0  0  0  0  0  0  0  0  0  0
   -0.3495   14.1021   -5.3155 C   0  0  0  0  0  0  0  0  0  0  0  0
    1.6750   13.6707   -6.7114 C   0  0  0  0  0  0  0  0  0  0  0  0
    0.0769   11.9422   -6.3538 C   0  0  0  0  0  0  0  0  0  0  0  0
   -0.6587   11.4250   -5.2083 O   0  0  0  0  0  0  0  0  0  0  0  0
   -0.9437   10.0570   -5.0528 C   0  0  0  0  0  0  0  0  0  0  0  0
   -1.6817    9.7487   -3.7968 C   0  0  0  0  0  0  0  0  0  0  0  0
   -2.4078    8.4983   -3.9977 N   0  0  0  0  0  0  0  0  0  0  0  0
   -3.0818    8.0575   -2.8854 N   0  0  0  0  0  0  0  0  0  0  0  0
   -4.4425    7.9678   -2.8775 C   0  0  0  0  0  0  0  0  0  0  0  0
   -5.1602    8.3154   -4.1579 C   0  0  0  0  0  0  0  0  0  0  0  0
   -6.3402    7.4972   -4.3750 N   0  0  0  0  0  0  0  0  0  0  0  0
   -6.4169    6.5495   -5.3133 C   0  0  0  0  0  0  0  0  0  0  0  0
   -7.7698    5.9434   -5.4646 C   0  0  0  0  0  0  0  0  0  0  0  0
   -7.8151    4.4351   -5.0602 C   0  0  0  0  0  0  0  0  0  0  0  0
   -9.2075    3.8632   -5.2917 C   0  0  0  0  0  0  0  0  0  0  0  0
   -7.4436    4.2773   -3.5802 C   0  0  0  0  0  0  0  0  0  0  0  0
   -8.2302    6.1181   -6.8219 N   0  0  0  0  0  0  0  0  0  0  0  0
   -9.2702    6.9720   -7.0336 C   0  0  0  0  0  0  0  0  0  0  0  0
   -9.9867    6.9531   -8.3686 C   0  0  0  0  0  0  0  0  0  0  0  0
  -11.2939    7.7508   -8.3561 C   0  0  0  0  0  0  0  0  0  0  0  0
  -12.0546    7.5207   -9.6206 C   0  0  0  0  0  0  0  0  0  0  0  0
  -12.1881    6.0695   -9.8849 N   0  0  0  0  0  0  0  0  0  0  0  0
  -13.3539    5.3737  -10.0185 C   0  0  0  0  0  0  0  0  0  0  0  0
  -14.5545    5.9937   -9.7689 C   0  0  0  0  0  0  0  0  0  0  0  0
  -15.6154    6.3574   -9.5949 C   0  0  0  0  0  0  0  0  0  0  0  0
  -16.8631    6.9472   -9.2236 C   0  0  0  0  0  0  0  0  0  0  0  0
  -17.5517    6.0868   -8.2476 N   0  0  0  0  0  0  0  0  0  0  0  0
  -16.7065    5.3280   -7.3397 C   0  0  0  0  0  0  0  0  0  0  0  0
  -18.7792    6.5702   -7.6770 C   0  0  0  0  0  0  0  0  0  0  0  0
  -16.5983    8.3609   -8.6333 C   0  0  0  0  0  0  0  0  0  0  0  0
  -17.7139    7.0602  -10.4961 C   0  0  0  0  0  0  0  0  0  0  0  0
  -13.3507    4.1852  -10.3228 O   0  0  0  0  0  0  0  0  0  0  0  0
  -11.0025    5.3256   -9.9318 C   0  0  0  0  0  0  0  0  0  0  0  0
  -10.3759    5.5089   -8.6002 C   0  0  0  0  0  0  0  0  0  0  0  0
   -9.6604    7.7261   -6.1351 O   0  0  0  0  0  0  0  0  0  0  0  0
   -7.5280    5.3416   -7.8869 C   0  0  0  0  0  0  0  0  0  0  0  0
   -5.4521    6.2330   -5.9959 O   0  0  0  0  0  0  0  0  0  0  0  0
   -5.6040    9.7976   -4.0571 C   0  0  0  0  0  0  0  0  0  0  0  0
   -6.0466   10.3131   -5.4035 C   0  0  0  0  0  0  0  0  0  0  0  0
   -4.8139   10.5315   -6.2439 C   0  0  0  0  0  0  0  0  0  0  0  0
   -5.1844   11.1405   -7.5297 N   0  0  0  0  0  0  0  0  0  0  0  0
   -5.9955   12.4244   -7.2884 C   0  0  0  0  0  0  0  0  0  0  0  0
   -7.1969   12.1266   -6.4685 C   0  0  0  0  0  0  0  0  0  0  0  0
   -6.7850   11.5206   -5.2173 O   0  0  0  0  0  0  0  0  0  0  0  0
   -5.0751    7.7027   -1.8831 O   0  0  0  0  0  0  0  0  0  0  0  0
   -2.2501    7.8035   -1.7183 C   0  0  0  0  0  0  0  0  0  0  0  0
   -1.4730    9.1104   -1.3863 C   0  0  0  0  0  0  0  0  0  0  0  0
   -0.7256    9.5901   -2.6153 C   0  0  0  0  0  0  0  0  0  0  0  0
   -0.6728    9.0996   -5.8229 O   0  0  0  0  0  0  0  0  0  0  0  0
   -1.9422   12.0673   -8.9422 C   0  0  0  0  0  0  0  0  0  0  0  0
   -1.8446   11.2394  -10.0511 C   0  0  0  0  0  0  0  0  0  0  0  0
   -2.8927   10.3128  -10.3201 C   0  0  0  0  0  0  0  0  0  0  0  0
   -3.9733   10.2796   -9.4559 C   0  0  0  0  0  0  0  0  0  0  0  0
   -4.0537   11.1686   -8.3595 C   0  0  0  0  0  0  0  0  0  0  0  0
   -2.9960   12.0357   -8.1135 C   0  0  0  0  0  0  0  0  0  0  0  0
   -9.1380    7.4338   -9.3579 F   0  0  0  0  0  0  0  0  0  0  0  0
  1  2  1  0  0  0  0
  2  3  1  0  0  0  0
  2  5  1  0  0  0  0
  3  4  1  0  0  0  0
  5  6  4  0  0  0  0
  5 10  4  0  0  0  0
  6  7  4  0  0  0  0
  7  8  4  0  0  0  0
  8  9  4  0  0  0  0
  9 10  4  0  0  0  0
 10 11  1  0  0  0  0
 11 12  4  0  0  0  0
 11 15  4  0  0  0  0
 12 13  1  0  0  0  0
 12 68  4  0  0  0  0
 13 14  1  0  0  0  0
 15 16  1  0  0  0  0
 15 67  4  0  0  0  0
 16 17  1  0  0  0  0
 17 18  1  0  0  0  0
 17 19  1  0  0  0  0
 17 20  1  0  0  0  0
 20 21  1  0  0  0  0
 21 22  1  0  0  0  0
 22 23  1  0  0  0  0
 22 66  2  0  0  0  0
 23 24  1  0  0  0  0
 23 65  1  0  0  0  0
 24 25  1  0  0  0  0
 25 26  1  0  0  0  0
 25 63  1  0  0  0  0
 26 27  1  0  0  0  0
 26 62  2  0  0  0  0
 27 28  1  0  0  0  0
 27 55  1  0  0  0  0
 28 29  1  0  0  0  0
 29 30  1  0  0  0  0
 29 54  2  0  0  0  0
 30 31  1  0  0  0  0
 30 34  1  0  0  0  0
 31 32  1  0  0  0  0
 31 33  1  0  0  0  0
 34 35  1  0  0  0  0
 34 53  1  0  0  0  0
 35 36  1  0  0  0  0
 35 52  2  0  0  0  0
 36 37  1  0  0  0  0
 36 51  1  0  0  0  0
 36 73  1  0  0  0  0
 37 38  1  0  0  0  0
 38 39  1  0  0  0  0
 39 40  1  0  0  0  0
 39 50  1  0  0  0  0
 40 41  1  0  0  0  0
 40 49  2  0  0  0  0
 41 42  1  0  0  0  0
 42 43  1  0  0  0  0
 43 44  1  0  0  0  0
 43 47  1  0  0  0  0
 43 48  1  0  0  0  0
 44 45  1  0  0  0  0
 44 46  1  0  0  0  0
 50 51  1  0  0  0  0
 55 56  1  0  0  0  0
 56 57  1  0  0  0  0
 56 61  1  0  0  0  0
 57 58  1  0  0  0  0
 58 59  1  0  0  0  0
 58 71  1  0  0  0  0
 59 60  1  0  0  0  0
 60 61  1  0  0  0  0
 63 64  1  0  0  0  0
 64 65  1  0  0  0  0
 67 68  4  0  0  0  0
 67 72  4  0  0  0  0
 68 69  4  0  0  0  0
 69 70  4  0  0  0  0
 70 71  4  0  0  0  0
 71 72  4  0  0  0  0
M  END
$$$$
