mol_ETKDG4_118
  PyMOL3.1          3D                             0

 73 79  0  0  0  0  0  0  0  0999 V2000
   -0.4588   16.1758  -12.1197 C   0  0  0  0  0  0  0  0  0  0  0  0
   -0.4525   14.6653  -12.1210 C   0  0  0  0  0  0  0  0  0  0  0  0
   -0.7994   14.0871  -13.3550 O   0  0  0  0  0  0  0  0  0  0  0  0
   -2.1697   14.1038  -13.7329 C   0  0  0  0  0  0  0  0  0  0  0  0
    0.8670   14.1176  -11.7336 C   0  0  0  0  0  0  0  0  0  0  0  0
    1.9587   14.6653  -12.2449 N   0  0  0  0  0  0  0  0  0  0  0  0
    3.1806   14.1807  -11.9133 C   0  0  0  0  0  0  0  0  0  0  0  0
    3.3189   13.1223  -11.0283 C   0  0  0  0  0  0  0  0  0  0  0  0
    2.1891   12.5596  -10.5069 C   0  0  0  0  0  0  0  0  0  0  0  0
    0.9681   13.0470  -10.8652 C   0  0  0  0  0  0  0  0  0  0  0  0
   -0.2175   12.4445  -10.3322 C   0  0  0  0  0  0  0  0  0  0  0  0
   -0.8980   11.4613  -10.9734 N   0  0  0  0  0  0  0  0  0  0  0  0
   -0.5266   10.7773  -12.2271 C   0  0  0  0  0  0  0  0  0  0  0  0
    0.1718    9.4423  -11.9095 C   0  0  0  0  0  0  0  0  0  0  0  0
   -0.8985   12.8088   -9.1607 C   0  0  0  0  0  0  0  0  0  0  0  0
   -0.5821   13.8133   -8.0886 C   0  0  0  0  0  0  0  0  0  0  0  0
    0.1893   13.2661   -6.8360 C   0  0  0  0  0  0  0  0  0  0  0  0
   -0.2915   14.0215   -5.5949 C   0  0  0  0  0  0  0  0  0  0  0  0
    1.7016   13.5218   -7.0118 C   0  0  0  0  0  0  0  0  0  0  0  0
    0.0639   11.8368   -6.6006 C   0  0  0  0  0  0  0  0  0  0  0  0
   -0.6185   11.3644   -5.3862 O   0  0  0  0  0  0  0  0  0  0  0  0
   -0.8876    9.9942   -5.1478 C   0  0  0  0  0  0  0  0  0  0  0  0
   -1.6190    9.7172   -3.8624 C   0  0  0  0  0  0  0  0  0  0  0  0
   -2.3130    8.4466   -4.0077 N   0  0  0  0  0  0  0  0  0  0  0  0
   -2.9978    8.0390   -2.8748 N   0  0  0  0  0  0  0  0  0  0  0  0
   -4.3645    7.9373   -2.8725 C   0  0  0  0  0  0  0  0  0  0  0  0
   -5.0745    8.2426   -4.1527 C   0  0  0  0  0  0  0  0  0  0  0  0
   -6.2750    7.4555   -4.3553 N   0  0  0  0  0  0  0  0  0  0  0  0
   -6.3756    6.4858   -5.2848 C   0  0  0  0  0  0  0  0  0  0  0  0
   -7.7730    5.9766   -5.4954 C   0  0  0  0  0  0  0  0  0  0  0  0
   -7.9161    4.4676   -5.1800 C   0  0  0  0  0  0  0  0  0  0  0  0
   -9.3513    4.0097   -5.4316 C   0  0  0  0  0  0  0  0  0  0  0  0
   -7.5362    4.2075   -3.7145 C   0  0  0  0  0  0  0  0  0  0  0  0
   -8.1304    6.3489   -6.8544 N   0  0  0  0  0  0  0  0  0  0  0  0
   -8.7747    7.5402   -7.0413 C   0  0  0  0  0  0  0  0  0  0  0  0
   -9.0541    8.0609   -8.4383 C   0  0  0  0  0  0  0  0  0  0  0  0
  -10.1131    9.1633   -8.4407 C   0  0  0  0  0  0  0  0  0  0  0  0
  -10.2390    9.7286   -9.8174 C   0  0  0  0  0  0  0  0  0  0  0  0
   -8.9282   10.1899  -10.2731 N   0  0  0  0  0  0  0  0  0  0  0  0
   -8.6524   11.4684  -10.6042 C   0  0  0  0  0  0  0  0  0  0  0  0
   -9.7285   12.3672  -10.7277 C   0  0  0  0  0  0  0  0  0  0  0  0
  -10.5708   13.1542  -10.9145 C   0  0  0  0  0  0  0  0  0  0  0  0
  -11.6406   14.0773  -11.0719 C   0  0  0  0  0  0  0  0  0  0  0  0
  -12.8587   13.5734  -10.4110 N   0  0  0  0  0  0  0  0  0  0  0  0
  -12.6561   13.1707   -9.0101 C   0  0  0  0  0  0  0  0  0  0  0  0
  -13.6360   12.5962  -11.1637 C   0  0  0  0  0  0  0  0  0  0  0  0
  -11.2746   15.4271  -10.4426 C   0  0  0  0  0  0  0  0  0  0  0  0
  -11.8824   14.2504  -12.5787 C   0  0  0  0  0  0  0  0  0  0  0  0
   -7.5047   11.8304  -10.8185 O   0  0  0  0  0  0  0  0  0  0  0  0
   -7.8655    9.2010  -10.3159 C   0  0  0  0  0  0  0  0  0  0  0  0
   -7.7215    8.6280   -8.9444 C   0  0  0  0  0  0  0  0  0  0  0  0
   -9.1084    8.2252   -6.0634 O   0  0  0  0  0  0  0  0  0  0  0  0
   -7.6418    5.4648   -7.9572 C   0  0  0  0  0  0  0  0  0  0  0  0
   -5.4218    6.1232   -5.9655 O   0  0  0  0  0  0  0  0  0  0  0  0
   -5.4904    9.7462   -4.0725 C   0  0  0  0  0  0  0  0  0  0  0  0
   -5.9640   10.2557   -5.4156 C   0  0  0  0  0  0  0  0  0  0  0  0
   -4.7483   10.4951   -6.2876 C   0  0  0  0  0  0  0  0  0  0  0  0
   -5.1702   11.0951   -7.5724 N   0  0  0  0  0  0  0  0  0  0  0  0
   -5.9825   12.3630   -7.3202 C   0  0  0  0  0  0  0  0  0  0  0  0
   -7.1702   12.0320   -6.4728 C   0  0  0  0  0  0  0  0  0  0  0  0
   -6.7065   11.4607   -5.2236 O   0  0  0  0  0  0  0  0  0  0  0  0
   -5.0033    7.6969   -1.8684 O   0  0  0  0  0  0  0  0  0  0  0  0
   -2.1688    7.8535   -1.6923 C   0  0  0  0  0  0  0  0  0  0  0  0
   -1.4098    9.1874   -1.4234 C   0  0  0  0  0  0  0  0  0  0  0  0
   -0.6578    9.6320   -2.6727 C   0  0  0  0  0  0  0  0  0  0  0  0
   -0.6167    9.0167   -5.8900 O   0  0  0  0  0  0  0  0  0  0  0  0
   -2.0049   12.0148   -9.1483 C   0  0  0  0  0  0  0  0  0  0  0  0
   -1.9802   11.1791  -10.2712 C   0  0  0  0  0  0  0  0  0  0  0  0
   -3.0398   10.2578  -10.4729 C   0  0  0  0  0  0  0  0  0  0  0  0
   -4.0727   10.2285   -9.5514 C   0  0  0  0  0  0  0  0  0  0  0  0
   -4.0905   11.1221   -8.4581 C   0  0  0  0  0  0  0  0  0  0  0  0
   -3.0115   11.9923   -8.2576 C   0  0  0  0  0  0  0  0  0  0  0  0
   -9.5063    7.0514   -9.2705 F   0  0  0  0  0  0  0  0  0  0  0  0
  1  2  1  0  0  0  0
  2  3  1  0  0  0  0
  2  5  1  0  0  0  0
  3  4  1  0  0  0  0
  5  6  4  0  0  0  0
  5 10  4  0  0  0  0
  6  7  4  0  0  0  0
  7  8  4  0  0  0  0
  8  9  4  0  0  0  0
  9 10  4  0  0  0  0
 10 11  1  0  0  0  0
 11 12  4  0  0  0  0
 11 15  4  0  0  0  0
 12 13  1  0  0  0  0
 12 68  4  0  0  0  0
 13 14  1  0  0  0  0
 15 16  1  0  0  0  0
 15 67  4  0  0  0  0
 16 17  1  0  0  0  0
 17 18  1  0  0  0  0
 17 19  1  0  0  0  0
 17 20  1  0  0  0  0
 20 21  1  0  0  0  0
 21 22  1  0  0  0  0
 22 23  1  0  0  0  0
 22 66  2  0  0  0  0
 23 24  1  0  0  0  0
 23 65  1  0  0  0  0
 24 25  1  0  0  0  0
 25 26  1  0  0  0  0
 25 63  1  0  0  0  0
 26 27  1  0  0  0  0
 26 62  2  0  0  0  0
 27 28  1  0  0  0  0
 27 55  1  0  0  0  0
 28 29  1  0  0  0  0
 29 30  1  0  0  0  0
 29 54  2  0  0  0  0
 30 31  1  0  0  0  0
 30 34  1  0  0  0  0
 31 32  1  0  0  0  0
 31 33  1  0  0  0  0
 34 35  1  0  0  0  0
 34 53  1  0  0  0  0
 35 36  1  0  0  0  0
 35 52  2  0  0  0  0
 36 37  1  0  0  0  0
 36 51  1  0  0  0  0
 36 73  1  0  0  0  0
 37 38  1  0  0  0  0
 38 39  1  0  0  0  0
 39 40  1  0  0  0  0
 39 50  1  0  0  0  0
 40 41  1  0  0  0  0
 40 49  2  0  0  0  0
 41 42  1  0  0  0  0
 42 43  1  0  0  0  0
 43 44  1  0  0  0  0
 43 47  1  0  0  0  0
 43 48  1  0  0  0  0
 44 45  1  0  0  0  0
 44 46  1  0  0  0  0
 50 51  1  0  0  0  0
 55 56  1  0  0  0  0
 56 57  1  0  0  0  0
 56 61  1  0  0  0  0
 57 58  1  0  0  0  0
 58 59  1  0  0  0  0
 58 71  1  0  0  0  0
 59 60  1  0  0  0  0
 60 61  1  0  0  0  0
 63 64  1  0  0  0  0
 64 65  1  0  0  0  0
 67 68  4  0  0  0  0
 67 72  4  0  0  0  0
 68 69  4  0  0  0  0
 69 70  4  0  0  0  0
 70 71  4  0  0  0  0
 71 72  4  0  0  0  0
M  END
$$$$
