mol_ETKDG2_73
  PyMOL3.1          3D                             0

 73 79  0  0  0  0  0  0  0  0999 V2000
   -0.6813   15.7358  -11.7264 C   0  0  0  0  0  0  0  0  0  0  0  0
   -0.3254   14.3411  -12.2169 C   0  0  0  0  0  0  0  0  0  0  0  0
   -0.2372   14.2455  -13.6248 O   0  0  0  0  0  0  0  0  0  0  0  0
   -1.3436   13.6392  -14.2739 C   0  0  0  0  0  0  0  0  0  0  0  0
    0.9440   13.8725  -11.6434 C   0  0  0  0  0  0  0  0  0  0  0  0
    2.0736   14.4219  -12.0581 N   0  0  0  0  0  0  0  0  0  0  0  0
    3.2502   14.0117  -11.5679 C   0  0  0  0  0  0  0  0  0  0  0  0
    3.3123   13.0064  -10.6035 C   0  0  0  0  0  0  0  0  0  0  0  0
    2.1558   12.4420  -10.1788 C   0  0  0  0  0  0  0  0  0  0  0  0
    0.9753   12.8681  -10.7069 C   0  0  0  0  0  0  0  0  0  0  0  0
   -0.2430   12.2762  -10.2489 C   0  0  0  0  0  0  0  0  0  0  0  0
   -0.8921   11.2779  -10.9027 N   0  0  0  0  0  0  0  0  0  0  0  0
   -0.4734   10.5772  -12.1184 C   0  0  0  0  0  0  0  0  0  0  0  0
    0.1832    9.2474  -11.7441 C   0  0  0  0  0  0  0  0  0  0  0  0
   -0.9794   12.6751   -9.1406 C   0  0  0  0  0  0  0  0  0  0  0  0
   -0.7163   13.7400   -8.1207 C   0  0  0  0  0  0  0  0  0  0  0  0
   -0.0631   13.2692   -6.7842 C   0  0  0  0  0  0  0  0  0  0  0  0
   -0.7699   13.9901   -5.6337 C   0  0  0  0  0  0  0  0  0  0  0  0
    1.4342   13.6615   -6.7529 C   0  0  0  0  0  0  0  0  0  0  0  0
   -0.0804   11.8671   -6.5471 C   0  0  0  0  0  0  0  0  0  0  0  0
   -0.7306   11.3551   -5.3353 O   0  0  0  0  0  0  0  0  0  0  0  0
   -1.0086    9.9923   -5.1451 C   0  0  0  0  0  0  0  0  0  0  0  0
   -1.7163    9.7000   -3.8683 C   0  0  0  0  0  0  0  0  0  0  0  0
   -2.4180    8.4417   -4.0339 N   0  0  0  0  0  0  0  0  0  0  0  0
   -3.0826    8.0204   -2.9100 N   0  0  0  0  0  0  0  0  0  0  0  0
   -4.4404    7.9250   -2.8924 C   0  0  0  0  0  0  0  0  0  0  0  0
   -5.1591    8.2321   -4.1793 C   0  0  0  0  0  0  0  0  0  0  0  0
   -6.3365    7.4083   -4.3590 N   0  0  0  0  0  0  0  0  0  0  0  0
   -6.4279    6.4394   -5.2678 C   0  0  0  0  0  0  0  0  0  0  0  0
   -7.7834    5.8339   -5.4037 C   0  0  0  0  0  0  0  0  0  0  0  0
   -7.8540    4.3338   -4.9891 C   0  0  0  0  0  0  0  0  0  0  0  0
   -9.2635    3.8005   -5.2091 C   0  0  0  0  0  0  0  0  0  0  0  0
   -7.4793    4.1769   -3.5130 C   0  0  0  0  0  0  0  0  0  0  0  0
   -8.2267    6.0066   -6.7583 N   0  0  0  0  0  0  0  0  0  0  0  0
   -9.1935    6.9268   -6.9988 C   0  0  0  0  0  0  0  0  0  0  0  0
   -9.8466    6.9506   -8.3557 C   0  0  0  0  0  0  0  0  0  0  0  0
  -11.0110    7.9173   -8.4674 C   0  0  0  0  0  0  0  0  0  0  0  0
  -11.6505    7.7558   -9.7999 C   0  0  0  0  0  0  0  0  0  0  0  0
  -11.9625    6.3301  -10.0489 N   0  0  0  0  0  0  0  0  0  0  0  0
  -13.1619    5.8245  -10.3621 C   0  0  0  0  0  0  0  0  0  0  0  0
  -14.2321    6.6763  -10.4042 C   0  0  0  0  0  0  0  0  0  0  0  0
  -15.1776    7.2922  -10.4754 C   0  0  0  0  0  0  0  0  0  0  0  0
  -16.3043    8.1679  -10.4914 C   0  0  0  0  0  0  0  0  0  0  0  0
  -16.2648    9.0365   -9.3049 N   0  0  0  0  0  0  0  0  0  0  0  0
  -16.1950    8.2898   -8.0371 C   0  0  0  0  0  0  0  0  0  0  0  0
  -15.2441   10.1001   -9.3842 C   0  0  0  0  0  0  0  0  0  0  0  0
  -17.5759    7.3283  -10.4699 C   0  0  0  0  0  0  0  0  0  0  0  0
  -16.2363    9.0101  -11.7703 C   0  0  0  0  0  0  0  0  0  0  0  0
  -13.3029    4.6294  -10.5919 O   0  0  0  0  0  0  0  0  0  0  0  0
  -10.9182    5.3861   -9.9056 C   0  0  0  0  0  0  0  0  0  0  0  0
  -10.4116    5.5612   -8.5446 C   0  0  0  0  0  0  0  0  0  0  0  0
   -9.5626    7.7024   -6.1160 O   0  0  0  0  0  0  0  0  0  0  0  0
   -7.5703    5.1609   -7.7945 C   0  0  0  0  0  0  0  0  0  0  0  0
   -5.4752    6.1022   -5.9655 O   0  0  0  0  0  0  0  0  0  0  0  0
   -5.6009    9.7098   -4.1271 C   0  0  0  0  0  0  0  0  0  0  0  0
   -6.0628   10.1752   -5.4904 C   0  0  0  0  0  0  0  0  0  0  0  0
   -4.8530   10.3898   -6.3515 C   0  0  0  0  0  0  0  0  0  0  0  0
   -5.2619   10.9438   -7.6489 N   0  0  0  0  0  0  0  0  0  0  0  0
   -6.0927   12.2145   -7.4405 C   0  0  0  0  0  0  0  0  0  0  0  0
   -7.2700   11.9112   -6.5863 C   0  0  0  0  0  0  0  0  0  0  0  0
   -6.8203   11.3690   -5.3392 O   0  0  0  0  0  0  0  0  0  0  0  0
   -5.0700    7.6778   -1.8941 O   0  0  0  0  0  0  0  0  0  0  0  0
   -2.2442    7.7991   -1.7374 C   0  0  0  0  0  0  0  0  0  0  0  0
   -1.4810    9.1144   -1.4470 C   0  0  0  0  0  0  0  0  0  0  0  0
   -0.7442    9.5815   -2.6921 C   0  0  0  0  0  0  0  0  0  0  0  0
   -0.7545    9.0287   -5.9142 O   0  0  0  0  0  0  0  0  0  0  0  0
   -2.0806   11.8637   -9.1572 C   0  0  0  0  0  0  0  0  0  0  0  0
   -2.0048   11.0026  -10.2423 C   0  0  0  0  0  0  0  0  0  0  0  0
   -3.0467   10.0660  -10.4596 C   0  0  0  0  0  0  0  0  0  0  0  0
   -4.1025   10.0499   -9.5790 C   0  0  0  0  0  0  0  0  0  0  0  0
   -4.1682   10.9656   -8.5034 C   0  0  0  0  0  0  0  0  0  0  0  0
   -3.1032   11.8483   -8.3074 C   0  0  0  0  0  0  0  0  0  0  0  0
   -8.8977    7.2779   -9.3078 F   0  0  0  0  0  0  0  0  0  0  0  0
  1  2  1  0  0  0  0
  2  3  1  0  0  0  0
  2  5  1  0  0  0  0
  3  4  1  0  0  0  0
  5  6  4  0  0  0  0
  5 10  4  0  0  0  0
  6  7  4  0  0  0  0
  7  8  4  0  0  0  0
  8  9  4  0  0  0  0
  9 10  4  0  0  0  0
 10 11  1  0  0  0  0
 11 12  4  0  0  0  0
 11 15  4  0  0  0  0
 12 13  1  0  0  0  0
 12 68  4  0  0  0  0
 13 14  1  0  0  0  0
 15 16  1  0  0  0  0
 15 67  4  0  0  0  0
 16 17  1  0  0  0  0
 17 18  1  0  0  0  0
 17 19  1  0  0  0  0
 17 20  1  0  0  0  0
 20 21  1  0  0  0  0
 21 22  1  0  0  0  0
 22 23  1  0  0  0  0
 22 66  2  0  0  0  0
 23 24  1  0  0  0  0
 23 65  1  0  0  0  0
 24 25  1  0  0  0  0
 25 26  1  0  0  0  0
 25 63  1  0  0  0  0
 26 27  1  0  0  0  0
 26 62  2  0  0  0  0
 27 28  1  0  0  0  0
 27 55  1  0  0  0  0
 28 29  1  0  0  0  0
 29 30  1  0  0  0  0
 29 54  2  0  0  0  0
 30 31  1  0  0  0  0
 30 34  1  0  0  0  0
 31 32  1  0  0  0  0
 31 33  1  0  0  0  0
 34 35  1  0  0  0  0
 34 53  1  0  0  0  0
 35 36  1  0  0  0  0
 35 52  2  0  0  0  0
 36 37  1  0  0  0  0
 36 51  1  0  0  0  0
 36 73  1  0  0  0  0
 37 38  1  0  0  0  0
 38 39  1  0  0  0  0
 39 40  1  0  0  0  0
 39 50  1  0  0  0  0
 40 41  1  0  0  0  0
 40 49  2  0  0  0  0
 41 42  1  0  0  0  0
 42 43  1  0  0  0  0
 43 44  1  0  0  0  0
 43 47  1  0  0  0  0
 43 48  1  0  0  0  0
 44 45  1  0  0  0  0
 44 46  1  0  0  0  0
 50 51  1  0  0  0  0
 55 56  1  0  0  0  0
 56 57  1  0  0  0  0
 56 61  1  0  0  0  0
 57 58  1  0  0  0  0
 58 59  1  0  0  0  0
 58 71  1  0  0  0  0
 59 60  1  0  0  0  0
 60 61  1  0  0  0  0
 63 64  1  0  0  0  0
 64 65  1  0  0  0  0
 67 68  4  0  0  0  0
 67 72  4  0  0  0  0
 68 69  4  0  0  0  0
 69 70  4  0  0  0  0
 70 71  4  0  0  0  0
 71 72  4  0  0  0  0
M  END
$$$$
