mol_ETKDG4_114
  PyMOL3.1          3D                             0

 73 79  0  0  0  0  0  0  0  0999 V2000
   -0.0535   15.1192  -13.2690 C   0  0  0  0  0  0  0  0  0  0  0  0
   -0.2227   14.6288  -11.8478 C   0  0  0  0  0  0  0  0  0  0  0  0
   -0.6858   15.6313  -10.9910 O   0  0  0  0  0  0  0  0  0  0  0  0
   -2.0804   15.8573  -10.9212 C   0  0  0  0  0  0  0  0  0  0  0  0
    1.0454   14.1296  -11.2749 C   0  0  0  0  0  0  0  0  0  0  0  0
    2.1715   14.7274  -11.6145 N   0  0  0  0  0  0  0  0  0  0  0  0
    3.3458   14.2781  -11.1202 C   0  0  0  0  0  0  0  0  0  0  0  0
    3.3994   13.1826  -10.2773 C   0  0  0  0  0  0  0  0  0  0  0  0
    2.2390   12.5656   -9.9377 C   0  0  0  0  0  0  0  0  0  0  0  0
    1.0690   13.0460  -10.4270 C   0  0  0  0  0  0  0  0  0  0  0  0
   -0.1514   12.4286  -10.0260 C   0  0  0  0  0  0  0  0  0  0  0  0
   -0.7794   11.4501  -10.7262 N   0  0  0  0  0  0  0  0  0  0  0  0
   -0.3234   10.8017  -11.9608 C   0  0  0  0  0  0  0  0  0  0  0  0
    0.2531    9.4188  -11.6393 C   0  0  0  0  0  0  0  0  0  0  0  0
   -0.9162   12.7820   -8.9246 C   0  0  0  0  0  0  0  0  0  0  0  0
   -0.7008   13.8102   -7.8555 C   0  0  0  0  0  0  0  0  0  0  0  0
    0.0100   13.3125   -6.5655 C   0  0  0  0  0  0  0  0  0  0  0  0
   -0.6079   14.0142   -5.3603 C   0  0  0  0  0  0  0  0  0  0  0  0
    1.5032   13.6773   -6.6293 C   0  0  0  0  0  0  0  0  0  0  0  0
   -0.0230   11.8935   -6.3688 C   0  0  0  0  0  0  0  0  0  0  0  0
   -0.7128   11.3604   -5.2065 O   0  0  0  0  0  0  0  0  0  0  0  0
   -1.0116    9.9965   -5.0640 C   0  0  0  0  0  0  0  0  0  0  0  0
   -1.7413    9.6802   -3.8100 C   0  0  0  0  0  0  0  0  0  0  0  0
   -2.4195    8.4129   -3.9941 N   0  0  0  0  0  0  0  0  0  0  0  0
   -3.1014    7.9880   -2.8772 N   0  0  0  0  0  0  0  0  0  0  0  0
   -4.4581    7.8984   -2.8786 C   0  0  0  0  0  0  0  0  0  0  0  0
   -5.1624    8.1979   -4.1636 C   0  0  0  0  0  0  0  0  0  0  0  0
   -6.3447    7.3967   -4.3470 N   0  0  0  0  0  0  0  0  0  0  0  0
   -6.4294    6.4143   -5.2465 C   0  0  0  0  0  0  0  0  0  0  0  0
   -7.7907    5.8288   -5.3814 C   0  0  0  0  0  0  0  0  0  0  0  0
   -7.8573    4.3250   -4.9838 C   0  0  0  0  0  0  0  0  0  0  0  0
   -9.2592    3.7854   -5.2322 C   0  0  0  0  0  0  0  0  0  0  0  0
   -7.5039    4.1621   -3.5018 C   0  0  0  0  0  0  0  0  0  0  0  0
   -8.2438    6.0293   -6.7294 N   0  0  0  0  0  0  0  0  0  0  0  0
   -9.1913    6.9658   -6.9443 C   0  0  0  0  0  0  0  0  0  0  0  0
   -9.8737    7.0068   -8.2806 C   0  0  0  0  0  0  0  0  0  0  0  0
  -10.9823    8.0373   -8.3615 C   0  0  0  0  0  0  0  0  0  0  0  0
  -11.6864    7.8931   -9.6530 C   0  0  0  0  0  0  0  0  0  0  0  0
  -12.1037    6.4944   -9.8453 N   0  0  0  0  0  0  0  0  0  0  0  0
  -13.3513    6.0648  -10.0136 C   0  0  0  0  0  0  0  0  0  0  0  0
  -14.3640    6.9873   -9.9538 C   0  0  0  0  0  0  0  0  0  0  0  0
  -15.2907    7.6227   -9.9404 C   0  0  0  0  0  0  0  0  0  0  0  0
  -16.3696    8.5428   -9.8265 C   0  0  0  0  0  0  0  0  0  0  0  0
  -17.5260    7.8318   -9.2343 N   0  0  0  0  0  0  0  0  0  0  0  0
  -17.2165    7.2651   -7.8982 C   0  0  0  0  0  0  0  0  0  0  0  0
  -18.1234    6.8266  -10.1173 C   0  0  0  0  0  0  0  0  0  0  0  0
  -15.9652    9.7260   -8.9369 C   0  0  0  0  0  0  0  0  0  0  0  0
  -16.6796    9.0457  -11.2383 C   0  0  0  0  0  0  0  0  0  0  0  0
  -13.6034    4.8784  -10.1949 O   0  0  0  0  0  0  0  0  0  0  0  0
  -11.0905    5.5004   -9.7787 C   0  0  0  0  0  0  0  0  0  0  0  0
  -10.5046    5.6389   -8.4434 C   0  0  0  0  0  0  0  0  0  0  0  0
   -9.5306    7.7399   -6.0477 O   0  0  0  0  0  0  0  0  0  0  0  0
   -7.6152    5.1897   -7.7890 C   0  0  0  0  0  0  0  0  0  0  0  0
   -5.4746    6.0812   -5.9311 O   0  0  0  0  0  0  0  0  0  0  0  0
   -5.5947    9.6886   -4.1106 C   0  0  0  0  0  0  0  0  0  0  0  0
   -6.0623   10.1673   -5.4565 C   0  0  0  0  0  0  0  0  0  0  0  0
   -4.8542   10.3518   -6.3301 C   0  0  0  0  0  0  0  0  0  0  0  0
   -5.2304   10.9960   -7.5949 N   0  0  0  0  0  0  0  0  0  0  0  0
   -6.0200   12.2911   -7.3083 C   0  0  0  0  0  0  0  0  0  0  0  0
   -7.2042   11.9894   -6.4956 C   0  0  0  0  0  0  0  0  0  0  0  0
   -6.7809   11.3795   -5.2637 O   0  0  0  0  0  0  0  0  0  0  0  0
   -5.0966    7.6562   -1.8804 O   0  0  0  0  0  0  0  0  0  0  0  0
   -2.2743    7.7795   -1.7012 C   0  0  0  0  0  0  0  0  0  0  0  0
   -1.5309    9.1021   -1.4003 C   0  0  0  0  0  0  0  0  0  0  0  0
   -0.7852    9.5798   -2.6259 C   0  0  0  0  0  0  0  0  0  0  0  0
   -0.7543    9.0458   -5.8490 O   0  0  0  0  0  0  0  0  0  0  0  0
   -2.0090   11.9657   -8.9964 C   0  0  0  0  0  0  0  0  0  0  0  0
   -1.9024   11.1434  -10.1045 C   0  0  0  0  0  0  0  0  0  0  0  0
   -2.9320   10.2094  -10.3760 C   0  0  0  0  0  0  0  0  0  0  0  0
   -4.0119   10.1576   -9.5200 C   0  0  0  0  0  0  0  0  0  0  0  0
   -4.1051   11.0377   -8.4265 C   0  0  0  0  0  0  0  0  0  0  0  0
   -3.0352   11.9166   -8.1790 C   0  0  0  0  0  0  0  0  0  0  0  0
   -8.9399    7.2756   -9.2751 F   0  0  0  0  0  0  0  0  0  0  0  0
  1  2  1  0  0  0  0
  2  3  1  0  0  0  0
  2  5  1  0  0  0  0
  3  4  1  0  0  0  0
  5  6  4  0  0  0  0
  5 10  4  0  0  0  0
  6  7  4  0  0  0  0
  7  8  4  0  0  0  0
  8  9  4  0  0  0  0
  9 10  4  0  0  0  0
 10 11  1  0  0  0  0
 11 12  4  0  0  0  0
 11 15  4  0  0  0  0
 12 13  1  0  0  0  0
 12 68  4  0  0  0  0
 13 14  1  0  0  0  0
 15 16  1  0  0  0  0
 15 67  4  0  0  0  0
 16 17  1  0  0  0  0
 17 18  1  0  0  0  0
 17 19  1  0  0  0  0
 17 20  1  0  0  0  0
 20 21  1  0  0  0  0
 21 22  1  0  0  0  0
 22 23  1  0  0  0  0
 22 66  2  0  0  0  0
 23 24  1  0  0  0  0
 23 65  1  0  0  0  0
 24 25  1  0  0  0  0
 25 26  1  0  0  0  0
 25 63  1  0  0  0  0
 26 27  1  0  0  0  0
 26 62  2  0  0  0  0
 27 28  1  0  0  0  0
 27 55  1  0  0  0  0
 28 29  1  0  0  0  0
 29 30  1  0  0  0  0
 29 54  2  0  0  0  0
 30 31  1  0  0  0  0
 30 34  1  0  0  0  0
 31 32  1  0  0  0  0
 31 33  1  0  0  0  0
 34 35  1  0  0  0  0
 34 53  1  0  0  0  0
 35 36  1  0  0  0  0
 35 52  2  0  0  0  0
 36 37  1  0  0  0  0
 36 51  1  0  0  0  0
 36 73  1  0  0  0  0
 37 38  1  0  0  0  0
 38 39  1  0  0  0  0
 39 40  1  0  0  0  0
 39 50  1  0  0  0  0
 40 41  1  0  0  0  0
 40 49  2  0  0  0  0
 41 42  1  0  0  0  0
 42 43  1  0  0  0  0
 43 44  1  0  0  0  0
 43 47  1  0  0  0  0
 43 48  1  0  0  0  0
 44 45  1  0  0  0  0
 44 46  1  0  0  0  0
 50 51  1  0  0  0  0
 55 56  1  0  0  0  0
 56 57  1  0  0  0  0
 56 61  1  0  0  0  0
 57 58  1  0  0  0  0
 58 59  1  0  0  0  0
 58 71  1  0  0  0  0
 59 60  1  0  0  0  0
 60 61  1  0  0  0  0
 63 64  1  0  0  0  0
 64 65  1  0  0  0  0
 67 68  4  0  0  0  0
 67 72  4  0  0  0  0
 68 69  4  0  0  0  0
 69 70  4  0  0  0  0
 70 71  4  0  0  0  0
 71 72  4  0  0  0  0
M  END
$$$$
