mol_ETKDG2_72
  PyMOL3.1          3D                             0

 73 79  0  0  0  0  0  0  0  0999 V2000
    0.2729   16.6569  -11.6696 C   0  0  0  0  0  0  0  0  0  0  0  0
    0.0413   15.2716  -11.1076 C   0  0  0  0  0  0  0  0  0  0  0  0
   -0.5609   14.4714  -12.0905 O   0  0  0  0  0  0  0  0  0  0  0  0
   -1.9799   14.5516  -12.1779 C   0  0  0  0  0  0  0  0  0  0  0  0
    1.3012   14.6142  -10.6911 C   0  0  0  0  0  0  0  0  0  0  0  0
    2.4532   15.2208  -10.9464 N   0  0  0  0  0  0  0  0  0  0  0  0
    3.6218   14.6640  -10.6200 C   0  0  0  0  0  0  0  0  0  0  0  0
    3.6671   13.4347   -9.9781 C   0  0  0  0  0  0  0  0  0  0  0  0
    2.4993   12.8057   -9.7031 C   0  0  0  0  0  0  0  0  0  0  0  0
    1.3172   13.3755  -10.0741 C   0  0  0  0  0  0  0  0  0  0  0  0
    0.0833   12.7010   -9.7577 C   0  0  0  0  0  0  0  0  0  0  0  0
   -0.4646   11.6854  -10.4846 N   0  0  0  0  0  0  0  0  0  0  0  0
    0.0904   11.0190  -11.6603 C   0  0  0  0  0  0  0  0  0  0  0  0
    0.6708    9.6705  -11.2341 C   0  0  0  0  0  0  0  0  0  0  0  0
   -0.7686   13.0206   -8.7133 C   0  0  0  0  0  0  0  0  0  0  0  0
   -0.6303   14.0265   -7.6339 C   0  0  0  0  0  0  0  0  0  0  0  0
    0.0456   13.4939   -6.3391 C   0  0  0  0  0  0  0  0  0  0  0  0
   -0.6299   14.1494   -5.1404 C   0  0  0  0  0  0  0  0  0  0  0  0
    1.5410   13.8864   -6.3343 C   0  0  0  0  0  0  0  0  0  0  0  0
    0.0308   12.0569   -6.1873 C   0  0  0  0  0  0  0  0  0  0  0  0
   -0.6467   11.4701   -5.0444 O   0  0  0  0  0  0  0  0  0  0  0  0
   -0.9308   10.0973   -4.9553 C   0  0  0  0  0  0  0  0  0  0  0  0
   -1.6547    9.7390   -3.7067 C   0  0  0  0  0  0  0  0  0  0  0  0
   -2.3489    8.4828   -3.9210 N   0  0  0  0  0  0  0  0  0  0  0  0
   -3.0402    8.0419   -2.8184 N   0  0  0  0  0  0  0  0  0  0  0  0
   -4.4021    7.9599   -2.8208 C   0  0  0  0  0  0  0  0  0  0  0  0
   -5.0949    8.2953   -4.1099 C   0  0  0  0  0  0  0  0  0  0  0  0
   -6.2774    7.4966   -4.3110 N   0  0  0  0  0  0  0  0  0  0  0  0
   -6.3472    6.5341   -5.2135 C   0  0  0  0  0  0  0  0  0  0  0  0
   -7.7066    5.9710   -5.4201 C   0  0  0  0  0  0  0  0  0  0  0  0
   -7.8149    4.4569   -5.0732 C   0  0  0  0  0  0  0  0  0  0  0  0
   -9.2106    3.9496   -5.3910 C   0  0  0  0  0  0  0  0  0  0  0  0
   -7.5077    4.2374   -3.5864 C   0  0  0  0  0  0  0  0  0  0  0  0
   -8.0698    6.2358   -6.7873 N   0  0  0  0  0  0  0  0  0  0  0  0
   -9.0003    7.1914   -7.0401 C   0  0  0  0  0  0  0  0  0  0  0  0
   -9.4973    7.3406   -8.4489 C   0  0  0  0  0  0  0  0  0  0  0  0
  -10.6441    8.3136   -8.6240 C   0  0  0  0  0  0  0  0  0  0  0  0
  -11.0872    8.2759  -10.0460 C   0  0  0  0  0  0  0  0  0  0  0  0
  -11.3391    6.8773  -10.4548 N   0  0  0  0  0  0  0  0  0  0  0  0
  -12.4803    6.3945  -10.9468 C   0  0  0  0  0  0  0  0  0  0  0  0
  -13.5438    7.2308  -11.0082 C   0  0  0  0  0  0  0  0  0  0  0  0
  -14.4909    7.8366  -11.0884 C   0  0  0  0  0  0  0  0  0  0  0  0
  -15.6061    8.6972  -11.0627 C   0  0  0  0  0  0  0  0  0  0  0  0
  -16.3091    8.5966   -9.7833 N   0  0  0  0  0  0  0  0  0  0  0  0
  -15.5247    8.1248   -8.6546 C   0  0  0  0  0  0  0  0  0  0  0  0
  -17.2234    9.6586   -9.4643 C   0  0  0  0  0  0  0  0  0  0  0  0
  -15.1124   10.1444  -11.2947 C   0  0  0  0  0  0  0  0  0  0  0  0
  -16.5460    8.2611  -12.1848 C   0  0  0  0  0  0  0  0  0  0  0  0
  -12.5802    5.2243  -11.3050 O   0  0  0  0  0  0  0  0  0  0  0  0
  -10.3129    5.9273  -10.2602 C   0  0  0  0  0  0  0  0  0  0  0  0
  -10.0148    5.9816   -8.8294 C   0  0  0  0  0  0  0  0  0  0  0  0
   -9.4490    7.8991   -6.1400 O   0  0  0  0  0  0  0  0  0  0  0  0
   -7.3459    5.4550   -7.8263 C   0  0  0  0  0  0  0  0  0  0  0  0
   -5.3730    6.1713   -5.8673 O   0  0  0  0  0  0  0  0  0  0  0  0
   -5.5328    9.7770   -4.0684 C   0  0  0  0  0  0  0  0  0  0  0  0
   -5.9532   10.2280   -5.4540 C   0  0  0  0  0  0  0  0  0  0  0  0
   -4.7144   10.5028   -6.2564 C   0  0  0  0  0  0  0  0  0  0  0  0
   -5.0765   11.0539   -7.5730 N   0  0  0  0  0  0  0  0  0  0  0  0
   -5.9821   12.2795   -7.3962 C   0  0  0  0  0  0  0  0  0  0  0  0
   -7.1889   11.9081   -6.6061 C   0  0  0  0  0  0  0  0  0  0  0  0
   -6.7790   11.3820   -5.3347 O   0  0  0  0  0  0  0  0  0  0  0  0
   -5.0490    7.6968   -1.8397 O   0  0  0  0  0  0  0  0  0  0  0  0
   -2.2226    7.7895   -1.6403 C   0  0  0  0  0  0  0  0  0  0  0  0
   -1.4595    9.0943   -1.3066 C   0  0  0  0  0  0  0  0  0  0  0  0
   -0.6999    9.5830   -2.5235 C   0  0  0  0  0  0  0  0  0  0  0  0
   -0.6748    9.1850   -5.7793 O   0  0  0  0  0  0  0  0  0  0  0  0
   -1.8335   12.1640   -8.8380 C   0  0  0  0  0  0  0  0  0  0  0  0
   -1.6226   11.3346   -9.9249 C   0  0  0  0  0  0  0  0  0  0  0  0
   -2.5970   10.3510  -10.2377 C   0  0  0  0  0  0  0  0  0  0  0  0
   -3.7229   10.2598   -9.4362 C   0  0  0  0  0  0  0  0  0  0  0  0
   -3.9235   11.1505   -8.3541 C   0  0  0  0  0  0  0  0  0  0  0  0
   -2.9244   12.0851   -8.0748 C   0  0  0  0  0  0  0  0  0  0  0  0
   -8.4455    7.7593   -9.2501 F   0  0  0  0  0  0  0  0  0  0  0  0
  1  2  1  0  0  0  0
  2  3  1  0  0  0  0
  2  5  1  0  0  0  0
  3  4  1  0  0  0  0
  5  6  4  0  0  0  0
  5 10  4  0  0  0  0
  6  7  4  0  0  0  0
  7  8  4  0  0  0  0
  8  9  4  0  0  0  0
  9 10  4  0  0  0  0
 10 11  1  0  0  0  0
 11 12  4  0  0  0  0
 11 15  4  0  0  0  0
 12 13  1  0  0  0  0
 12 68  4  0  0  0  0
 13 14  1  0  0  0  0
 15 16  1  0  0  0  0
 15 67  4  0  0  0  0
 16 17  1  0  0  0  0
 17 18  1  0  0  0  0
 17 19  1  0  0  0  0
 17 20  1  0  0  0  0
 20 21  1  0  0  0  0
 21 22  1  0  0  0  0
 22 23  1  0  0  0  0
 22 66  2  0  0  0  0
 23 24  1  0  0  0  0
 23 65  1  0  0  0  0
 24 25  1  0  0  0  0
 25 26  1  0  0  0  0
 25 63  1  0  0  0  0
 26 27  1  0  0  0  0
 26 62  2  0  0  0  0
 27 28  1  0  0  0  0
 27 55  1  0  0  0  0
 28 29  1  0  0  0  0
 29 30  1  0  0  0  0
 29 54  2  0  0  0  0
 30 31  1  0  0  0  0
 30 34  1  0  0  0  0
 31 32  1  0  0  0  0
 31 33  1  0  0  0  0
 34 35  1  0  0  0  0
 34 53  1  0  0  0  0
 35 36  1  0  0  0  0
 35 52  2  0  0  0  0
 36 37  1  0  0  0  0
 36 51  1  0  0  0  0
 36 73  1  0  0  0  0
 37 38  1  0  0  0  0
 38 39  1  0  0  0  0
 39 40  1  0  0  0  0
 39 50  1  0  0  0  0
 40 41  1  0  0  0  0
 40 49  2  0  0  0  0
 41 42  1  0  0  0  0
 42 43  1  0  0  0  0
 43 44  1  0  0  0  0
 43 47  1  0  0  0  0
 43 48  1  0  0  0  0
 44 45  1  0  0  0  0
 44 46  1  0  0  0  0
 50 51  1  0  0  0  0
 55 56  1  0  0  0  0
 56 57  1  0  0  0  0
 56 61  1  0  0  0  0
 57 58  1  0  0  0  0
 58 59  1  0  0  0  0
 58 71  1  0  0  0  0
 59 60  1  0  0  0  0
 60 61  1  0  0  0  0
 63 64  1  0  0  0  0
 64 65  1  0  0  0  0
 67 68  4  0  0  0  0
 67 72  4  0  0  0  0
 68 69  4  0  0  0  0
 69 70  4  0  0  0  0
 70 71  4  0  0  0  0
 71 72  4  0  0  0  0
M  END
$$$$
