mol_ETKDG2_71
  PyMOL3.1          3D                             0

 73 79  0  0  0  0  0  0  0  0999 V2000
   -0.3046   14.8541  -13.5902 C   0  0  0  0  0  0  0  0  0  0  0  0
   -0.4151   14.4555  -12.1329 C   0  0  0  0  0  0  0  0  0  0  0  0
   -0.8845   15.5122  -11.3254 O   0  0  0  0  0  0  0  0  0  0  0  0
   -2.2992   15.6822  -11.2189 C   0  0  0  0  0  0  0  0  0  0  0  0
    0.8825   14.0111  -11.5758 C   0  0  0  0  0  0  0  0  0  0  0  0
    1.9995   14.6097  -11.9747 N   0  0  0  0  0  0  0  0  0  0  0  0
    3.1924   14.2199  -11.5012 C   0  0  0  0  0  0  0  0  0  0  0  0
    3.2968   13.1628  -10.5970 C   0  0  0  0  0  0  0  0  0  0  0  0
    2.1611   12.5375  -10.1945 C   0  0  0  0  0  0  0  0  0  0  0  0
    0.9565   12.9655  -10.6767 C   0  0  0  0  0  0  0  0  0  0  0  0
   -0.2507   12.3366  -10.2192 C   0  0  0  0  0  0  0  0  0  0  0  0
   -0.8672   11.3136  -10.8648 N   0  0  0  0  0  0  0  0  0  0  0  0
   -0.4039   10.6010  -12.0638 C   0  0  0  0  0  0  0  0  0  0  0  0
    0.2691    9.2875  -11.6533 C   0  0  0  0  0  0  0  0  0  0  0  0
   -1.0163   12.7327   -9.1188 C   0  0  0  0  0  0  0  0  0  0  0  0
   -0.7899   13.7954   -8.0893 C   0  0  0  0  0  0  0  0  0  0  0  0
   -0.0564   13.3371   -6.7874 C   0  0  0  0  0  0  0  0  0  0  0  0
   -0.6809   14.0668   -5.5919 C   0  0  0  0  0  0  0  0  0  0  0  0
    1.4397   13.7276   -6.8564 C   0  0  0  0  0  0  0  0  0  0  0  0
   -0.0634   11.9227   -6.5468 C   0  0  0  0  0  0  0  0  0  0  0  0
   -0.7229   11.3966   -5.3476 O   0  0  0  0  0  0  0  0  0  0  0  0
   -1.0262   10.0335   -5.1764 C   0  0  0  0  0  0  0  0  0  0  0  0
   -1.7381    9.7350   -3.8960 C   0  0  0  0  0  0  0  0  0  0  0  0
   -2.4504    8.4755   -4.0588 N   0  0  0  0  0  0  0  0  0  0  0  0
   -3.1216    8.0603   -2.9302 N   0  0  0  0  0  0  0  0  0  0  0  0
   -4.4827    7.9404   -2.9248 C   0  0  0  0  0  0  0  0  0  0  0  0
   -5.2053    8.2355   -4.2164 C   0  0  0  0  0  0  0  0  0  0  0  0
   -6.3775    7.4035   -4.3999 N   0  0  0  0  0  0  0  0  0  0  0  0
   -6.4708    6.4334   -5.3253 C   0  0  0  0  0  0  0  0  0  0  0  0
   -7.8277    5.8155   -5.4313 C   0  0  0  0  0  0  0  0  0  0  0  0
   -7.8698    4.3110   -5.0328 C   0  0  0  0  0  0  0  0  0  0  0  0
   -9.2762    3.7575   -5.2271 C   0  0  0  0  0  0  0  0  0  0  0  0
   -7.4621    4.1570   -3.5578 C   0  0  0  0  0  0  0  0  0  0  0  0
   -8.3702    6.0304   -6.7527 N   0  0  0  0  0  0  0  0  0  0  0  0
   -9.2850    7.0240   -6.8888 C   0  0  0  0  0  0  0  0  0  0  0  0
  -10.1520    7.1068   -8.1262 C   0  0  0  0  0  0  0  0  0  0  0  0
  -11.1466    8.2580   -7.9919 C   0  0  0  0  0  0  0  0  0  0  0  0
  -12.1714    8.2077   -9.0683 C   0  0  0  0  0  0  0  0  0  0  0  0
  -12.7718    6.8670   -9.0923 N   0  0  0  0  0  0  0  0  0  0  0  0
  -14.0637    6.5634   -8.7695 C   0  0  0  0  0  0  0  0  0  0  0  0
  -14.8904    7.5271   -8.1917 C   0  0  0  0  0  0  0  0  0  0  0  0
  -15.6741    8.2347   -7.7243 C   0  0  0  0  0  0  0  0  0  0  0  0
  -16.5572    9.1673   -7.0757 C   0  0  0  0  0  0  0  0  0  0  0  0
  -15.8034    9.9852   -6.1176 N   0  0  0  0  0  0  0  0  0  0  0  0
  -15.1129    9.1953   -5.0785 C   0  0  0  0  0  0  0  0  0  0  0  0
  -14.8978   10.9649   -6.7561 C   0  0  0  0  0  0  0  0  0  0  0  0
  -17.6422    8.3986   -6.3198 C   0  0  0  0  0  0  0  0  0  0  0  0
  -17.1887   10.0551   -8.1499 C   0  0  0  0  0  0  0  0  0  0  0  0
  -14.5000    5.4318   -8.9479 O   0  0  0  0  0  0  0  0  0  0  0  0
  -11.8784    5.7774   -9.3332 C   0  0  0  0  0  0  0  0  0  0  0  0
  -10.9394    5.7936   -8.1682 C   0  0  0  0  0  0  0  0  0  0  0  0
   -9.4616    7.8395   -5.9736 O   0  0  0  0  0  0  0  0  0  0  0  0
   -7.8982    5.1390   -7.8526 C   0  0  0  0  0  0  0  0  0  0  0  0
   -5.5339    6.1027   -6.0463 O   0  0  0  0  0  0  0  0  0  0  0  0
   -5.6685    9.7113   -4.1612 C   0  0  0  0  0  0  0  0  0  0  0  0
   -6.1274   10.1720   -5.5284 C   0  0  0  0  0  0  0  0  0  0  0  0
   -4.9087   10.4222   -6.3632 C   0  0  0  0  0  0  0  0  0  0  0  0
   -5.3111   10.9463   -7.6739 N   0  0  0  0  0  0  0  0  0  0  0  0
   -6.1702   12.2022   -7.4910 C   0  0  0  0  0  0  0  0  0  0  0  0
   -7.3666   11.8715   -6.6518 C   0  0  0  0  0  0  0  0  0  0  0  0
   -6.9186   11.3545   -5.3820 O   0  0  0  0  0  0  0  0  0  0  0  0
   -5.1134    7.6910   -1.9271 O   0  0  0  0  0  0  0  0  0  0  0  0
   -2.2898    7.8560   -1.7459 C   0  0  0  0  0  0  0  0  0  0  0  0
   -1.5120    9.1690   -1.4688 C   0  0  0  0  0  0  0  0  0  0  0  0
   -0.7695    9.6165   -2.7163 C   0  0  0  0  0  0  0  0  0  0  0  0
   -0.7884    9.0836   -5.9634 O   0  0  0  0  0  0  0  0  0  0  0  0
   -2.1046   11.9005   -9.1416 C   0  0  0  0  0  0  0  0  0  0  0  0
   -1.9893   11.0238  -10.2164 C   0  0  0  0  0  0  0  0  0  0  0  0
   -3.0120   10.0618  -10.4365 C   0  0  0  0  0  0  0  0  0  0  0  0
   -4.0926   10.0410   -9.5718 C   0  0  0  0  0  0  0  0  0  0  0  0
   -4.1990   10.9761   -8.5088 C   0  0  0  0  0  0  0  0  0  0  0  0
   -3.1599   11.8834   -8.3048 C   0  0  0  0  0  0  0  0  0  0  0  0
   -9.3677    7.2824   -9.2585 F   0  0  0  0  0  0  0  0  0  0  0  0
  1  2  1  0  0  0  0
  2  3  1  0  0  0  0
  2  5  1  0  0  0  0
  3  4  1  0  0  0  0
  5  6  4  0  0  0  0
  5 10  4  0  0  0  0
  6  7  4  0  0  0  0
  7  8  4  0  0  0  0
  8  9  4  0  0  0  0
  9 10  4  0  0  0  0
 10 11  1  0  0  0  0
 11 12  4  0  0  0  0
 11 15  4  0  0  0  0
 12 13  1  0  0  0  0
 12 68  4  0  0  0  0
 13 14  1  0  0  0  0
 15 16  1  0  0  0  0
 15 67  4  0  0  0  0
 16 17  1  0  0  0  0
 17 18  1  0  0  0  0
 17 19  1  0  0  0  0
 17 20  1  0  0  0  0
 20 21  1  0  0  0  0
 21 22  1  0  0  0  0
 22 23  1  0  0  0  0
 22 66  2  0  0  0  0
 23 24  1  0  0  0  0
 23 65  1  0  0  0  0
 24 25  1  0  0  0  0
 25 26  1  0  0  0  0
 25 63  1  0  0  0  0
 26 27  1  0  0  0  0
 26 62  2  0  0  0  0
 27 28  1  0  0  0  0
 27 55  1  0  0  0  0
 28 29  1  0  0  0  0
 29 30  1  0  0  0  0
 29 54  2  0  0  0  0
 30 31  1  0  0  0  0
 30 34  1  0  0  0  0
 31 32  1  0  0  0  0
 31 33  1  0  0  0  0
 34 35  1  0  0  0  0
 34 53  1  0  0  0  0
 35 36  1  0  0  0  0
 35 52  2  0  0  0  0
 36 37  1  0  0  0  0
 36 51  1  0  0  0  0
 36 73  1  0  0  0  0
 37 38  1  0  0  0  0
 38 39  1  0  0  0  0
 39 40  1  0  0  0  0
 39 50  1  0  0  0  0
 40 41  1  0  0  0  0
 40 49  2  0  0  0  0
 41 42  1  0  0  0  0
 42 43  1  0  0  0  0
 43 44  1  0  0  0  0
 43 47  1  0  0  0  0
 43 48  1  0  0  0  0
 44 45  1  0  0  0  0
 44 46  1  0  0  0  0
 50 51  1  0  0  0  0
 55 56  1  0  0  0  0
 56 57  1  0  0  0  0
 56 61  1  0  0  0  0
 57 58  1  0  0  0  0
 58 59  1  0  0  0  0
 58 71  1  0  0  0  0
 59 60  1  0  0  0  0
 60 61  1  0  0  0  0
 63 64  1  0  0  0  0
 64 65  1  0  0  0  0
 67 68  4  0  0  0  0
 67 72  4  0  0  0  0
 68 69  4  0  0  0  0
 69 70  4  0  0  0  0
 70 71  4  0  0  0  0
 71 72  4  0  0  0  0
M  END
$$$$
