mol_ETKDG1_26
  PyMOL3.1          3D                             0

 73 79  0  0  0  0  0  0  0  0999 V2000
   -0.1777   14.9985  -13.1617 C   0  0  0  0  0  0  0  0  0  0  0  0
   -0.1836   14.8304  -11.6514 C   0  0  0  0  0  0  0  0  0  0  0  0
   -0.4229   16.0134  -10.9463 O   0  0  0  0  0  0  0  0  0  0  0  0
   -1.7794   16.3732  -10.6847 C   0  0  0  0  0  0  0  0  0  0  0  0
    1.0967   14.2801  -11.1613 C   0  0  0  0  0  0  0  0  0  0  0  0
    2.2132   14.8935  -11.4988 N   0  0  0  0  0  0  0  0  0  0  0  0
    3.3992   14.4308  -11.0842 C   0  0  0  0  0  0  0  0  0  0  0  0
    3.4836   13.2737  -10.3067 C   0  0  0  0  0  0  0  0  0  0  0  0
    2.3383   12.6303   -9.9721 C   0  0  0  0  0  0  0  0  0  0  0  0
    1.1425   13.1348  -10.3988 C   0  0  0  0  0  0  0  0  0  0  0  0
   -0.0754   12.4914  -10.0083 C   0  0  0  0  0  0  0  0  0  0  0  0
   -0.6799   11.4881  -10.7014 N   0  0  0  0  0  0  0  0  0  0  0  0
   -0.2053   10.8331  -11.9251 C   0  0  0  0  0  0  0  0  0  0  0  0
    0.3390    9.4426  -11.5900 C   0  0  0  0  0  0  0  0  0  0  0  0
   -0.8609   12.8456   -8.9231 C   0  0  0  0  0  0  0  0  0  0  0  0
   -0.6629   13.8887   -7.8746 C   0  0  0  0  0  0  0  0  0  0  0  0
    0.0519   13.4109   -6.5881 C   0  0  0  0  0  0  0  0  0  0  0  0
   -0.5843   14.1044   -5.3779 C   0  0  0  0  0  0  0  0  0  0  0  0
    1.5511   13.7680   -6.6249 C   0  0  0  0  0  0  0  0  0  0  0  0
    0.0245   11.9802   -6.3810 C   0  0  0  0  0  0  0  0  0  0  0  0
   -0.6795   11.4310   -5.2253 O   0  0  0  0  0  0  0  0  0  0  0  0
   -0.9668   10.0617   -5.1047 C   0  0  0  0  0  0  0  0  0  0  0  0
   -1.6838    9.7246   -3.8394 C   0  0  0  0  0  0  0  0  0  0  0  0
   -2.3817    8.4602   -4.0368 N   0  0  0  0  0  0  0  0  0  0  0  0
   -3.0554    8.0167   -2.9218 N   0  0  0  0  0  0  0  0  0  0  0  0
   -4.4123    7.9079   -2.9163 C   0  0  0  0  0  0  0  0  0  0  0  0
   -5.1289    8.2135   -4.2051 C   0  0  0  0  0  0  0  0  0  0  0  0
   -6.3066    7.3959   -4.4048 N   0  0  0  0  0  0  0  0  0  0  0  0
   -6.3931    6.4405   -5.3321 C   0  0  0  0  0  0  0  0  0  0  0  0
   -7.7522    5.8456   -5.4658 C   0  0  0  0  0  0  0  0  0  0  0  0
   -7.8211    4.3398   -5.0744 C   0  0  0  0  0  0  0  0  0  0  0  0
   -9.2203    3.7977   -5.3206 C   0  0  0  0  0  0  0  0  0  0  0  0
   -7.4642    4.1744   -3.5901 C   0  0  0  0  0  0  0  0  0  0  0  0
   -8.2312    6.0648   -6.8085 N   0  0  0  0  0  0  0  0  0  0  0  0
   -9.1616    7.0397   -6.9874 C   0  0  0  0  0  0  0  0  0  0  0  0
   -9.8868    7.1443   -8.3070 C   0  0  0  0  0  0  0  0  0  0  0  0
  -10.9649    8.2288   -8.2648 C   0  0  0  0  0  0  0  0  0  0  0  0
  -11.7954    8.1755   -9.4926 C   0  0  0  0  0  0  0  0  0  0  0  0
  -12.3009    6.8054   -9.6701 N   0  0  0  0  0  0  0  0  0  0  0  0
  -13.5951    6.4357   -9.6259 C   0  0  0  0  0  0  0  0  0  0  0  0
  -14.5588    7.3730   -9.2604 C   0  0  0  0  0  0  0  0  0  0  0  0
  -15.4254    8.0801   -8.9979 C   0  0  0  0  0  0  0  0  0  0  0  0
  -16.4177    9.0294   -8.5712 C   0  0  0  0  0  0  0  0  0  0  0  0
  -15.7449   10.2507   -8.0859 N   0  0  0  0  0  0  0  0  0  0  0  0
  -14.9048   10.0153   -6.8915 C   0  0  0  0  0  0  0  0  0  0  0  0
  -14.9862   10.9721   -9.1291 C   0  0  0  0  0  0  0  0  0  0  0  0
  -17.2430    8.4186   -7.4304 C   0  0  0  0  0  0  0  0  0  0  0  0
  -17.3064    9.3591   -9.7740 C   0  0  0  0  0  0  0  0  0  0  0  0
  -13.9291    5.2877   -9.8686 O   0  0  0  0  0  0  0  0  0  0  0  0
  -11.3245    5.7691   -9.7753 C   0  0  0  0  0  0  0  0  0  0  0  0
  -10.5813    5.8014   -8.4919 C   0  0  0  0  0  0  0  0  0  0  0  0
   -9.4508    7.8170   -6.0635 O   0  0  0  0  0  0  0  0  0  0  0  0
   -7.6588    5.2132   -7.8864 C   0  0  0  0  0  0  0  0  0  0  0  0
   -5.4418    6.1135   -6.0395 O   0  0  0  0  0  0  0  0  0  0  0  0
   -5.5845    9.6963   -4.1309 C   0  0  0  0  0  0  0  0  0  0  0  0
   -6.0351   10.1886   -5.4858 C   0  0  0  0  0  0  0  0  0  0  0  0
   -4.8108   10.3861   -6.3323 C   0  0  0  0  0  0  0  0  0  0  0  0
   -5.1745   10.9923   -7.6167 N   0  0  0  0  0  0  0  0  0  0  0  0
   -6.0070   12.2720   -7.3773 C   0  0  0  0  0  0  0  0  0  0  0  0
   -7.2032   11.9621   -6.5576 C   0  0  0  0  0  0  0  0  0  0  0  0
   -6.7767   11.3858   -5.3121 O   0  0  0  0  0  0  0  0  0  0  0  0
   -5.0504    7.6503   -1.9256 O   0  0  0  0  0  0  0  0  0  0  0  0
   -2.2239    7.7856   -1.7502 C   0  0  0  0  0  0  0  0  0  0  0  0
   -1.4538    9.1033   -1.4348 C   0  0  0  0  0  0  0  0  0  0  0  0
   -0.7142    9.5889   -2.6668 C   0  0  0  0  0  0  0  0  0  0  0  0
   -0.7123    9.1252   -5.9086 O   0  0  0  0  0  0  0  0  0  0  0  0
   -1.9408   12.0056   -8.9906 C   0  0  0  0  0  0  0  0  0  0  0  0
   -1.8045   11.1663  -10.0856 C   0  0  0  0  0  0  0  0  0  0  0  0
   -2.8157   10.2051  -10.3551 C   0  0  0  0  0  0  0  0  0  0  0  0
   -3.9070   10.1475   -9.5094 C   0  0  0  0  0  0  0  0  0  0  0  0
   -4.0352   11.0477   -8.4281 C   0  0  0  0  0  0  0  0  0  0  0  0
   -2.9928   11.9519   -8.1829 C   0  0  0  0  0  0  0  0  0  0  0  0
   -8.9822    7.4067   -9.3289 F   0  0  0  0  0  0  0  0  0  0  0  0
  1  2  1  0  0  0  0
  2  3  1  0  0  0  0
  2  5  1  0  0  0  0
  3  4  1  0  0  0  0
  5  6  4  0  0  0  0
  5 10  4  0  0  0  0
  6  7  4  0  0  0  0
  7  8  4  0  0  0  0
  8  9  4  0  0  0  0
  9 10  4  0  0  0  0
 10 11  1  0  0  0  0
 11 12  4  0  0  0  0
 11 15  4  0  0  0  0
 12 13  1  0  0  0  0
 12 68  4  0  0  0  0
 13 14  1  0  0  0  0
 15 16  1  0  0  0  0
 15 67  4  0  0  0  0
 16 17  1  0  0  0  0
 17 18  1  0  0  0  0
 17 19  1  0  0  0  0
 17 20  1  0  0  0  0
 20 21  1  0  0  0  0
 21 22  1  0  0  0  0
 22 23  1  0  0  0  0
 22 66  2  0  0  0  0
 23 24  1  0  0  0  0
 23 65  1  0  0  0  0
 24 25  1  0  0  0  0
 25 26  1  0  0  0  0
 25 63  1  0  0  0  0
 26 27  1  0  0  0  0
 26 62  2  0  0  0  0
 27 28  1  0  0  0  0
 27 55  1  0  0  0  0
 28 29  1  0  0  0  0
 29 30  1  0  0  0  0
 29 54  2  0  0  0  0
 30 31  1  0  0  0  0
 30 34  1  0  0  0  0
 31 32  1  0  0  0  0
 31 33  1  0  0  0  0
 34 35  1  0  0  0  0
 34 53  1  0  0  0  0
 35 36  1  0  0  0  0
 35 52  2  0  0  0  0
 36 37  1  0  0  0  0
 36 51  1  0  0  0  0
 36 73  1  0  0  0  0
 37 38  1  0  0  0  0
 38 39  1  0  0  0  0
 39 40  1  0  0  0  0
 39 50  1  0  0  0  0
 40 41  1  0  0  0  0
 40 49  2  0  0  0  0
 41 42  1  0  0  0  0
 42 43  1  0  0  0  0
 43 44  1  0  0  0  0
 43 47  1  0  0  0  0
 43 48  1  0  0  0  0
 44 45  1  0  0  0  0
 44 46  1  0  0  0  0
 50 51  1  0  0  0  0
 55 56  1  0  0  0  0
 56 57  1  0  0  0  0
 56 61  1  0  0  0  0
 57 58  1  0  0  0  0
 58 59  1  0  0  0  0
 58 71  1  0  0  0  0
 59 60  1  0  0  0  0
 60 61  1  0  0  0  0
 63 64  1  0  0  0  0
 64 65  1  0  0  0  0
 67 68  4  0  0  0  0
 67 72  4  0  0  0  0
 68 69  4  0  0  0  0
 69 70  4  0  0  0  0
 70 71  4  0  0  0  0
 71 72  4  0  0  0  0
M  END
$$$$
