mol_ETKDG5_150
  PyMOL3.1          3D                             0

 73 79  0  0  0  0  0  0  0  0999 V2000
    0.0135   14.9918  -13.3718 C   0  0  0  0  0  0  0  0  0  0  0  0
   -0.1278   14.6456  -11.9044 C   0  0  0  0  0  0  0  0  0  0  0  0
   -0.5277   15.7314  -11.1185 O   0  0  0  0  0  0  0  0  0  0  0  0
   -1.9194   16.0103  -11.0246 C   0  0  0  0  0  0  0  0  0  0  0  0
    1.1350   14.1433  -11.3231 C   0  0  0  0  0  0  0  0  0  0  0  0
    2.2695   14.7336  -11.6627 N   0  0  0  0  0  0  0  0  0  0  0  0
    3.4382   14.2894  -11.1671 C   0  0  0  0  0  0  0  0  0  0  0  0
    3.4861   13.1946  -10.3060 C   0  0  0  0  0  0  0  0  0  0  0  0
    2.3194   12.5889   -9.9636 C   0  0  0  0  0  0  0  0  0  0  0  0
    1.1456   13.0695  -10.4685 C   0  0  0  0  0  0  0  0  0  0  0  0
   -0.0925   12.4507  -10.0691 C   0  0  0  0  0  0  0  0  0  0  0  0
   -0.6990   11.4448  -10.7512 N   0  0  0  0  0  0  0  0  0  0  0  0
   -0.2214   10.7779  -11.9624 C   0  0  0  0  0  0  0  0  0  0  0  0
    0.4329    9.4451  -11.5920 C   0  0  0  0  0  0  0  0  0  0  0  0
   -0.8789   12.8266   -8.9874 C   0  0  0  0  0  0  0  0  0  0  0  0
   -0.6781   13.8766   -7.9487 C   0  0  0  0  0  0  0  0  0  0  0  0
   -0.0171   13.3987   -6.6138 C   0  0  0  0  0  0  0  0  0  0  0  0
   -0.7374   14.0803   -5.4507 C   0  0  0  0  0  0  0  0  0  0  0  0
    1.4681   13.8329   -6.5879 C   0  0  0  0  0  0  0  0  0  0  0  0
    0.0040   11.9783   -6.4134 C   0  0  0  0  0  0  0  0  0  0  0  0
   -0.6553   11.4227   -5.2350 O   0  0  0  0  0  0  0  0  0  0  0  0
   -0.9564   10.0548   -5.1060 C   0  0  0  0  0  0  0  0  0  0  0  0
   -1.6726    9.7223   -3.8370 C   0  0  0  0  0  0  0  0  0  0  0  0
   -2.3886    8.4747   -4.0319 N   0  0  0  0  0  0  0  0  0  0  0  0
   -3.0639    8.0354   -2.9105 N   0  0  0  0  0  0  0  0  0  0  0  0
   -4.4228    7.9308   -2.9043 C   0  0  0  0  0  0  0  0  0  0  0  0
   -5.1412    8.2309   -4.1905 C   0  0  0  0  0  0  0  0  0  0  0  0
   -6.3276    7.4276   -4.3681 N   0  0  0  0  0  0  0  0  0  0  0  0
   -6.4497    6.4814   -5.3162 C   0  0  0  0  0  0  0  0  0  0  0  0
   -7.8290    5.9097   -5.4027 C   0  0  0  0  0  0  0  0  0  0  0  0
   -7.8991    4.3956   -5.0582 C   0  0  0  0  0  0  0  0  0  0  0  0
   -9.3240    3.8823   -5.2322 C   0  0  0  0  0  0  0  0  0  0  0  0
   -7.4624    4.1817   -3.6012 C   0  0  0  0  0  0  0  0  0  0  0  0
   -8.4061    6.2067   -6.6966 N   0  0  0  0  0  0  0  0  0  0  0  0
   -9.2369    7.2759   -6.7819 C   0  0  0  0  0  0  0  0  0  0  0  0
  -10.1548    7.4510   -7.9671 C   0  0  0  0  0  0  0  0  0  0  0  0
  -10.9175    8.7659   -7.8706 C   0  0  0  0  0  0  0  0  0  0  0  0
  -11.9747    8.8313   -8.9089 C   0  0  0  0  0  0  0  0  0  0  0  0
  -12.8207    7.6399   -8.7948 N   0  0  0  0  0  0  0  0  0  0  0  0
  -14.1251    7.6591   -8.4081 C   0  0  0  0  0  0  0  0  0  0  0  0
  -14.6426    8.7996   -7.8077 C   0  0  0  0  0  0  0  0  0  0  0  0
  -15.1901    9.6401   -7.2908 C   0  0  0  0  0  0  0  0  0  0  0  0
  -15.7216   10.7575   -6.5394 C   0  0  0  0  0  0  0  0  0  0  0  0
  -16.1566   10.2748   -5.2081 N   0  0  0  0  0  0  0  0  0  0  0  0
  -15.0218    9.8628   -4.3503 C   0  0  0  0  0  0  0  0  0  0  0  0
  -17.1994    9.2242   -5.2765 C   0  0  0  0  0  0  0  0  0  0  0  0
  -16.9107   11.3427   -7.3047 C   0  0  0  0  0  0  0  0  0  0  0  0
  -14.6461   11.8406   -6.3930 C   0  0  0  0  0  0  0  0  0  0  0  0
  -14.8330    6.6706   -8.5357 O   0  0  0  0  0  0  0  0  0  0  0  0
  -12.1662    6.3708   -8.9814 C   0  0  0  0  0  0  0  0  0  0  0  0
  -11.1439    6.2807   -7.8895 C   0  0  0  0  0  0  0  0  0  0  0  0
   -9.3146    8.0794   -5.8376 O   0  0  0  0  0  0  0  0  0  0  0  0
   -8.0468    5.3117   -7.8405 C   0  0  0  0  0  0  0  0  0  0  0  0
   -5.5395    6.1430   -6.0649 O   0  0  0  0  0  0  0  0  0  0  0  0
   -5.5768    9.7217   -4.1358 C   0  0  0  0  0  0  0  0  0  0  0  0
   -6.0396   10.2025   -5.4996 C   0  0  0  0  0  0  0  0  0  0  0  0
   -4.8069   10.4263   -6.3387 C   0  0  0  0  0  0  0  0  0  0  0  0
   -5.1908   11.0031   -7.6361 N   0  0  0  0  0  0  0  0  0  0  0  0
   -6.0381   12.2566   -7.4352 C   0  0  0  0  0  0  0  0  0  0  0  0
   -7.2398   11.9350   -6.6001 C   0  0  0  0  0  0  0  0  0  0  0  0
   -6.7986   11.3868   -5.3447 O   0  0  0  0  0  0  0  0  0  0  0  0
   -5.0534    7.6778   -1.9078 O   0  0  0  0  0  0  0  0  0  0  0  0
   -2.2270    7.8067   -1.7347 C   0  0  0  0  0  0  0  0  0  0  0  0
   -1.4405    9.1089   -1.4320 C   0  0  0  0  0  0  0  0  0  0  0  0
   -0.6999    9.5718   -2.6678 C   0  0  0  0  0  0  0  0  0  0  0  0
   -0.7160    9.1249   -5.9109 O   0  0  0  0  0  0  0  0  0  0  0  0
   -1.9654   11.9925   -9.0471 C   0  0  0  0  0  0  0  0  0  0  0  0
   -1.8287   11.1410  -10.1325 C   0  0  0  0  0  0  0  0  0  0  0  0
   -2.8510   10.1826  -10.3874 C   0  0  0  0  0  0  0  0  0  0  0  0
   -3.9382   10.1433   -9.5370 C   0  0  0  0  0  0  0  0  0  0  0  0
   -4.0569   11.0493   -8.4635 C   0  0  0  0  0  0  0  0  0  0  0  0
   -3.0216   11.9554   -8.2263 C   0  0  0  0  0  0  0  0  0  0  0  0
   -9.4341    7.4390   -9.1554 F   0  0  0  0  0  0  0  0  0  0  0  0
  1  2  1  0  0  0  0
  2  3  1  0  0  0  0
  2  5  1  0  0  0  0
  3  4  1  0  0  0  0
  5  6  4  0  0  0  0
  5 10  4  0  0  0  0
  6  7  4  0  0  0  0
  7  8  4  0  0  0  0
  8  9  4  0  0  0  0
  9 10  4  0  0  0  0
 10 11  1  0  0  0  0
 11 12  4  0  0  0  0
 11 15  4  0  0  0  0
 12 13  1  0  0  0  0
 12 68  4  0  0  0  0
 13 14  1  0  0  0  0
 15 16  1  0  0  0  0
 15 67  4  0  0  0  0
 16 17  1  0  0  0  0
 17 18  1  0  0  0  0
 17 19  1  0  0  0  0
 17 20  1  0  0  0  0
 20 21  1  0  0  0  0
 21 22  1  0  0  0  0
 22 23  1  0  0  0  0
 22 66  2  0  0  0  0
 23 24  1  0  0  0  0
 23 65  1  0  0  0  0
 24 25  1  0  0  0  0
 25 26  1  0  0  0  0
 25 63  1  0  0  0  0
 26 27  1  0  0  0  0
 26 62  2  0  0  0  0
 27 28  1  0  0  0  0
 27 55  1  0  0  0  0
 28 29  1  0  0  0  0
 29 30  1  0  0  0  0
 29 54  2  0  0  0  0
 30 31  1  0  0  0  0
 30 34  1  0  0  0  0
 31 32  1  0  0  0  0
 31 33  1  0  0  0  0
 34 35  1  0  0  0  0
 34 53  1  0  0  0  0
 35 36  1  0  0  0  0
 35 52  2  0  0  0  0
 36 37  1  0  0  0  0
 36 51  1  0  0  0  0
 36 73  1  0  0  0  0
 37 38  1  0  0  0  0
 38 39  1  0  0  0  0
 39 40  1  0  0  0  0
 39 50  1  0  0  0  0
 40 41  1  0  0  0  0
 40 49  2  0  0  0  0
 41 42  1  0  0  0  0
 42 43  1  0  0  0  0
 43 44  1  0  0  0  0
 43 47  1  0  0  0  0
 43 48  1  0  0  0  0
 44 45  1  0  0  0  0
 44 46  1  0  0  0  0
 50 51  1  0  0  0  0
 55 56  1  0  0  0  0
 56 57  1  0  0  0  0
 56 61  1  0  0  0  0
 57 58  1  0  0  0  0
 58 59  1  0  0  0  0
 58 71  1  0  0  0  0
 59 60  1  0  0  0  0
 60 61  1  0  0  0  0
 63 64  1  0  0  0  0
 64 65  1  0  0  0  0
 67 68  4  0  0  0  0
 67 72  4  0  0  0  0
 68 69  4  0  0  0  0
 69 70  4  0  0  0  0
 70 71  4  0  0  0  0
 71 72  4  0  0  0  0
M  END
$$$$
