mol_ETKDG3_79
  PyMOL3.1          3D                             0

 73 79  0  0  0  0  0  0  0  0999 V2000
    0.5150   16.6309  -11.6993 C   0  0  0  0  0  0  0  0  0  0  0  0
    0.2156   15.2829  -11.0819 C   0  0  0  0  0  0  0  0  0  0  0  0
   -0.5170   14.5150  -11.9607 O   0  0  0  0  0  0  0  0  0  0  0  0
   -1.9145   14.7739  -11.9925 C   0  0  0  0  0  0  0  0  0  0  0  0
    1.4503   14.5541  -10.7062 C   0  0  0  0  0  0  0  0  0  0  0  0
    2.6138   15.1369  -10.9440 N   0  0  0  0  0  0  0  0  0  0  0  0
    3.7667   14.5280  -10.6540 C   0  0  0  0  0  0  0  0  0  0  0  0
    3.7787   13.2651  -10.0696 C   0  0  0  0  0  0  0  0  0  0  0  0
    2.5927   12.6566   -9.8209 C   0  0  0  0  0  0  0  0  0  0  0  0
    1.4306   13.2807  -10.1492 C   0  0  0  0  0  0  0  0  0  0  0  0
    0.1833   12.6286   -9.8486 C   0  0  0  0  0  0  0  0  0  0  0  0
   -0.3860   11.6325  -10.5888 N   0  0  0  0  0  0  0  0  0  0  0  0
    0.1404   10.9869  -11.7908 C   0  0  0  0  0  0  0  0  0  0  0  0
    0.6389    9.5876  -11.4335 C   0  0  0  0  0  0  0  0  0  0  0  0
   -0.6526   12.9442   -8.8019 C   0  0  0  0  0  0  0  0  0  0  0  0
   -0.5043   13.9579   -7.7175 C   0  0  0  0  0  0  0  0  0  0  0  0
    0.1595   13.4229   -6.4216 C   0  0  0  0  0  0  0  0  0  0  0  0
   -0.5260   14.0970   -5.2308 C   0  0  0  0  0  0  0  0  0  0  0  0
    1.6528   13.8146   -6.4122 C   0  0  0  0  0  0  0  0  0  0  0  0
    0.1304   11.9862   -6.2518 C   0  0  0  0  0  0  0  0  0  0  0  0
   -0.5826   11.4289   -5.1232 O   0  0  0  0  0  0  0  0  0  0  0  0
   -0.9049   10.0625   -5.0325 C   0  0  0  0  0  0  0  0  0  0  0  0
   -1.6383    9.7243   -3.7846 C   0  0  0  0  0  0  0  0  0  0  0  0
   -2.3478    8.4643   -3.9938 N   0  0  0  0  0  0  0  0  0  0  0  0
   -3.0338    8.0329   -2.8843 N   0  0  0  0  0  0  0  0  0  0  0  0
   -4.3962    7.9560   -2.8920 C   0  0  0  0  0  0  0  0  0  0  0  0
   -5.0890    8.2683   -4.1930 C   0  0  0  0  0  0  0  0  0  0  0  0
   -6.2787    7.4650   -4.3884 N   0  0  0  0  0  0  0  0  0  0  0  0
   -6.3573    6.4779   -5.2826 C   0  0  0  0  0  0  0  0  0  0  0  0
   -7.7224    5.8951   -5.4415 C   0  0  0  0  0  0  0  0  0  0  0  0
   -7.8251    4.3943   -5.0374 C   0  0  0  0  0  0  0  0  0  0  0  0
   -9.2370    3.8799   -5.2931 C   0  0  0  0  0  0  0  0  0  0  0  0
   -7.4813    4.2263   -3.5545 C   0  0  0  0  0  0  0  0  0  0  0  0
   -8.1261    6.0830   -6.8070 N   0  0  0  0  0  0  0  0  0  0  0  0
   -9.0410    7.0456   -7.0637 C   0  0  0  0  0  0  0  0  0  0  0  0
   -9.6455    7.1054   -8.4391 C   0  0  0  0  0  0  0  0  0  0  0  0
  -10.7320    8.1524   -8.5781 C   0  0  0  0  0  0  0  0  0  0  0  0
  -11.3380    8.0398   -9.9173 C   0  0  0  0  0  0  0  0  0  0  0  0
  -11.7420    6.6401  -10.1699 N   0  0  0  0  0  0  0  0  0  0  0  0
  -12.9714    6.2550  -10.5127 C   0  0  0  0  0  0  0  0  0  0  0  0
  -13.9651    7.2012  -10.5713 C   0  0  0  0  0  0  0  0  0  0  0  0
  -14.8637    7.8633  -10.6497 C   0  0  0  0  0  0  0  0  0  0  0  0
  -15.9617    8.7762  -10.6767 C   0  0  0  0  0  0  0  0  0  0  0  0
  -16.0601    9.4706   -9.3807 N   0  0  0  0  0  0  0  0  0  0  0  0
  -15.9396    8.5672   -8.2210 C   0  0  0  0  0  0  0  0  0  0  0  0
  -15.1698   10.6413   -9.2571 C   0  0  0  0  0  0  0  0  0  0  0  0
  -17.2385    7.9794  -10.9414 C   0  0  0  0  0  0  0  0  0  0  0  0
  -15.7221    9.7752  -11.8072 C   0  0  0  0  0  0  0  0  0  0  0  0
  -13.2103    5.0789  -10.7501 O   0  0  0  0  0  0  0  0  0  0  0  0
  -10.7815    5.6183  -10.0136 C   0  0  0  0  0  0  0  0  0  0  0  0
  -10.2840    5.7478   -8.6492 C   0  0  0  0  0  0  0  0  0  0  0  0
   -9.4027    7.8335   -6.1828 O   0  0  0  0  0  0  0  0  0  0  0  0
   -7.4836    5.2090   -7.8305 C   0  0  0  0  0  0  0  0  0  0  0  0
   -5.3895    6.1284   -5.9488 O   0  0  0  0  0  0  0  0  0  0  0  0
   -5.5110    9.7587   -4.1706 C   0  0  0  0  0  0  0  0  0  0  0  0
   -5.9242   10.2215   -5.5526 C   0  0  0  0  0  0  0  0  0  0  0  0
   -4.6744   10.4276   -6.3714 C   0  0  0  0  0  0  0  0  0  0  0  0
   -5.0028   11.0408   -7.6693 N   0  0  0  0  0  0  0  0  0  0  0  0
   -5.8593   12.3089   -7.4555 C   0  0  0  0  0  0  0  0  0  0  0  0
   -7.0733   11.9837   -6.6974 C   0  0  0  0  0  0  0  0  0  0  0  0
   -6.6901   11.4119   -5.4209 O   0  0  0  0  0  0  0  0  0  0  0  0
   -5.0455    7.7207   -1.8985 O   0  0  0  0  0  0  0  0  0  0  0  0
   -2.2137    7.7864   -1.7085 C   0  0  0  0  0  0  0  0  0  0  0  0
   -1.4364    9.0927   -1.3780 C   0  0  0  0  0  0  0  0  0  0  0  0
   -0.6859    9.5701   -2.6030 C   0  0  0  0  0  0  0  0  0  0  0  0
   -0.6681    9.1359   -5.8485 O   0  0  0  0  0  0  0  0  0  0  0  0
   -1.7316   12.1015   -8.9268 C   0  0  0  0  0  0  0  0  0  0  0  0
   -1.5448   11.2858  -10.0268 C   0  0  0  0  0  0  0  0  0  0  0  0
   -2.5420   10.3215  -10.3503 C   0  0  0  0  0  0  0  0  0  0  0  0
   -3.6604   10.2401   -9.5455 C   0  0  0  0  0  0  0  0  0  0  0  0
   -3.8345   11.1180   -8.4482 C   0  0  0  0  0  0  0  0  0  0  0  0
   -2.8140   12.0266   -8.1561 C   0  0  0  0  0  0  0  0  0  0  0  0
   -8.6517    7.3695   -9.3750 F   0  0  0  0  0  0  0  0  0  0  0  0
  1  2  1  0  0  0  0
  2  3  1  0  0  0  0
  2  5  1  0  0  0  0
  3  4  1  0  0  0  0
  5  6  4  0  0  0  0
  5 10  4  0  0  0  0
  6  7  4  0  0  0  0
  7  8  4  0  0  0  0
  8  9  4  0  0  0  0
  9 10  4  0  0  0  0
 10 11  1  0  0  0  0
 11 12  4  0  0  0  0
 11 15  4  0  0  0  0
 12 13  1  0  0  0  0
 12 68  4  0  0  0  0
 13 14  1  0  0  0  0
 15 16  1  0  0  0  0
 15 67  4  0  0  0  0
 16 17  1  0  0  0  0
 17 18  1  0  0  0  0
 17 19  1  0  0  0  0
 17 20  1  0  0  0  0
 20 21  1  0  0  0  0
 21 22  1  0  0  0  0
 22 23  1  0  0  0  0
 22 66  2  0  0  0  0
 23 24  1  0  0  0  0
 23 65  1  0  0  0  0
 24 25  1  0  0  0  0
 25 26  1  0  0  0  0
 25 63  1  0  0  0  0
 26 27  1  0  0  0  0
 26 62  2  0  0  0  0
 27 28  1  0  0  0  0
 27 55  1  0  0  0  0
 28 29  1  0  0  0  0
 29 30  1  0  0  0  0
 29 54  2  0  0  0  0
 30 31  1  0  0  0  0
 30 34  1  0  0  0  0
 31 32  1  0  0  0  0
 31 33  1  0  0  0  0
 34 35  1  0  0  0  0
 34 53  1  0  0  0  0
 35 36  1  0  0  0  0
 35 52  2  0  0  0  0
 36 37  1  0  0  0  0
 36 51  1  0  0  0  0
 36 73  1  0  0  0  0
 37 38  1  0  0  0  0
 38 39  1  0  0  0  0
 39 40  1  0  0  0  0
 39 50  1  0  0  0  0
 40 41  1  0  0  0  0
 40 49  2  0  0  0  0
 41 42  1  0  0  0  0
 42 43  1  0  0  0  0
 43 44  1  0  0  0  0
 43 47  1  0  0  0  0
 43 48  1  0  0  0  0
 44 45  1  0  0  0  0
 44 46  1  0  0  0  0
 50 51  1  0  0  0  0
 55 56  1  0  0  0  0
 56 57  1  0  0  0  0
 56 61  1  0  0  0  0
 57 58  1  0  0  0  0
 58 59  1  0  0  0  0
 58 71  1  0  0  0  0
 59 60  1  0  0  0  0
 60 61  1  0  0  0  0
 63 64  1  0  0  0  0
 64 65  1  0  0  0  0
 67 68  4  0  0  0  0
 67 72  4  0  0  0  0
 68 69  4  0  0  0  0
 69 70  4  0  0  0  0
 70 71  4  0  0  0  0
 71 72  4  0  0  0  0
M  END
$$$$
