mol_ETKDG3_94
  PyMOL3.1          3D                             0

 73 79  0  0  0  0  0  0  0  0999 V2000
   -0.0449   14.7366  -13.5518 C   0  0  0  0  0  0  0  0  0  0  0  0
   -0.1806   14.3833  -12.0875 C   0  0  0  0  0  0  0  0  0  0  0  0
   -0.6218   15.4393  -11.3036 O   0  0  0  0  0  0  0  0  0  0  0  0
   -2.0268   15.6557  -11.2080 C   0  0  0  0  0  0  0  0  0  0  0  0
    1.0972   13.9203  -11.5046 C   0  0  0  0  0  0  0  0  0  0  0  0
    2.2245   14.4910  -11.8931 N   0  0  0  0  0  0  0  0  0  0  0  0
    3.4033   14.0897  -11.3936 C   0  0  0  0  0  0  0  0  0  0  0  0
    3.4709   13.0483  -10.4663 C   0  0  0  0  0  0  0  0  0  0  0  0
    2.3098   12.4600  -10.0728 C   0  0  0  0  0  0  0  0  0  0  0  0
    1.1280   12.9009  -10.5847 C   0  0  0  0  0  0  0  0  0  0  0  0
   -0.0941   12.3033  -10.1394 C   0  0  0  0  0  0  0  0  0  0  0  0
   -0.7205   11.2891  -10.7907 N   0  0  0  0  0  0  0  0  0  0  0  0
   -0.2636   10.5712  -11.9844 C   0  0  0  0  0  0  0  0  0  0  0  0
    0.4589    9.2908  -11.5667 C   0  0  0  0  0  0  0  0  0  0  0  0
   -0.8550   12.7068   -9.0579 C   0  0  0  0  0  0  0  0  0  0  0  0
   -0.6246   13.7779   -8.0319 C   0  0  0  0  0  0  0  0  0  0  0  0
    0.0650   13.3148   -6.7101 C   0  0  0  0  0  0  0  0  0  0  0  0
   -0.5985   14.0514   -5.5445 C   0  0  0  0  0  0  0  0  0  0  0  0
    1.5572   13.7079   -6.7381 C   0  0  0  0  0  0  0  0  0  0  0  0
    0.0464   11.9041   -6.4653 C   0  0  0  0  0  0  0  0  0  0  0  0
   -0.6310   11.3974   -5.2682 O   0  0  0  0  0  0  0  0  0  0  0  0
   -0.9309   10.0371   -5.0811 C   0  0  0  0  0  0  0  0  0  0  0  0
   -1.6463    9.7440   -3.8066 C   0  0  0  0  0  0  0  0  0  0  0  0
   -2.3457    8.4758   -3.9675 N   0  0  0  0  0  0  0  0  0  0  0  0
   -3.0208    8.0611   -2.8444 N   0  0  0  0  0  0  0  0  0  0  0  0
   -4.3804    7.9522   -2.8416 C   0  0  0  0  0  0  0  0  0  0  0  0
   -5.0903    8.2547   -4.1333 C   0  0  0  0  0  0  0  0  0  0  0  0
   -6.2653    7.4280   -4.3159 N   0  0  0  0  0  0  0  0  0  0  0  0
   -6.3308    6.4394   -5.2003 C   0  0  0  0  0  0  0  0  0  0  0  0
   -7.6929    5.8557   -5.3777 C   0  0  0  0  0  0  0  0  0  0  0  0
   -7.8198    4.3490   -5.0095 C   0  0  0  0  0  0  0  0  0  0  0  0
   -9.2153    3.8441   -5.3645 C   0  0  0  0  0  0  0  0  0  0  0  0
   -7.5649    4.1532   -3.5102 C   0  0  0  0  0  0  0  0  0  0  0  0
   -8.0434    6.0861   -6.7431 N   0  0  0  0  0  0  0  0  0  0  0  0
   -8.9377    7.0654   -7.0094 C   0  0  0  0  0  0  0  0  0  0  0  0
   -9.4287    7.3029   -8.4133 C   0  0  0  0  0  0  0  0  0  0  0  0
   -9.2613    6.0950   -9.2603 C   0  0  0  0  0  0  0  0  0  0  0  0
   -9.7379    6.3304  -10.6195 C   0  0  0  0  0  0  0  0  0  0  0  0
  -11.1237    6.5544  -10.4525 N   0  0  0  0  0  0  0  0  0  0  0  0
  -11.9545    5.5919  -10.9137 C   0  0  0  0  0  0  0  0  0  0  0  0
  -13.2804    5.7518  -10.6042 C   0  0  0  0  0  0  0  0  0  0  0  0
  -14.3817    5.8661  -10.3812 C   0  0  0  0  0  0  0  0  0  0  0  0
  -15.7409    6.1315  -10.0028 C   0  0  0  0  0  0  0  0  0  0  0  0
  -15.8161    6.4146   -8.5581 N   0  0  0  0  0  0  0  0  0  0  0  0
  -14.9456    7.5159   -8.1066 C   0  0  0  0  0  0  0  0  0  0  0  0
  -15.7127    5.2388   -7.7001 C   0  0  0  0  0  0  0  0  0  0  0  0
  -16.5744    4.9170  -10.3543 C   0  0  0  0  0  0  0  0  0  0  0  0
  -16.2383    7.3673  -10.7770 C   0  0  0  0  0  0  0  0  0  0  0  0
  -11.5606    4.6349  -11.5616 O   0  0  0  0  0  0  0  0  0  0  0  0
  -11.5119    7.7226   -9.6922 C   0  0  0  0  0  0  0  0  0  0  0  0
  -10.9326    7.6042   -8.3399 C   0  0  0  0  0  0  0  0  0  0  0  0
   -9.3644    7.7955   -6.1014 O   0  0  0  0  0  0  0  0  0  0  0  0
   -7.3128    5.2565   -7.7226 C   0  0  0  0  0  0  0  0  0  0  0  0
   -5.3577    6.1078   -5.8666 O   0  0  0  0  0  0  0  0  0  0  0  0
   -5.5406    9.7383   -4.1075 C   0  0  0  0  0  0  0  0  0  0  0  0
   -6.0113   10.1779   -5.4757 C   0  0  0  0  0  0  0  0  0  0  0  0
   -4.7952   10.3835   -6.3336 C   0  0  0  0  0  0  0  0  0  0  0  0
   -5.1825   10.9473   -7.6383 N   0  0  0  0  0  0  0  0  0  0  0  0
   -6.0164   12.2179   -7.4327 C   0  0  0  0  0  0  0  0  0  0  0  0
   -7.2076   11.9124   -6.6066 C   0  0  0  0  0  0  0  0  0  0  0  0
   -6.7717   11.3718   -5.3384 O   0  0  0  0  0  0  0  0  0  0  0  0
   -5.0215    7.7074   -1.8441 O   0  0  0  0  0  0  0  0  0  0  0  0
   -2.1914    7.8558   -1.6702 C   0  0  0  0  0  0  0  0  0  0  0  0
   -1.4264    9.1798   -1.3805 C   0  0  0  0  0  0  0  0  0  0  0  0
   -0.6856    9.6356   -2.6250 C   0  0  0  0  0  0  0  0  0  0  0  0
   -0.6939    9.0733   -5.8545 O   0  0  0  0  0  0  0  0  0  0  0  0
   -1.9542   11.8862   -9.0828 C   0  0  0  0  0  0  0  0  0  0  0  0
   -1.8469   11.0087  -10.1506 C   0  0  0  0  0  0  0  0  0  0  0  0
   -2.8739   10.0538  -10.3815 C   0  0  0  0  0  0  0  0  0  0  0  0
   -3.9535   10.0410   -9.5245 C   0  0  0  0  0  0  0  0  0  0  0  0
   -4.0544   10.9737   -8.4683 C   0  0  0  0  0  0  0  0  0  0  0  0
   -3.0072   11.8706   -8.2541 C   0  0  0  0  0  0  0  0  0  0  0  0
   -8.7336    8.3805   -8.9376 F   0  0  0  0  0  0  0  0  0  0  0  0
  1  2  1  0  0  0  0
  2  3  1  0  0  0  0
  2  5  1  0  0  0  0
  3  4  1  0  0  0  0
  5  6  4  0  0  0  0
  5 10  4  0  0  0  0
  6  7  4  0  0  0  0
  7  8  4  0  0  0  0
  8  9  4  0  0  0  0
  9 10  4  0  0  0  0
 10 11  1  0  0  0  0
 11 12  4  0  0  0  0
 11 15  4  0  0  0  0
 12 13  1  0  0  0  0
 12 68  4  0  0  0  0
 13 14  1  0  0  0  0
 15 16  1  0  0  0  0
 15 67  4  0  0  0  0
 16 17  1  0  0  0  0
 17 18  1  0  0  0  0
 17 19  1  0  0  0  0
 17 20  1  0  0  0  0
 20 21  1  0  0  0  0
 21 22  1  0  0  0  0
 22 23  1  0  0  0  0
 22 66  2  0  0  0  0
 23 24  1  0  0  0  0
 23 65  1  0  0  0  0
 24 25  1  0  0  0  0
 25 26  1  0  0  0  0
 25 63  1  0  0  0  0
 26 27  1  0  0  0  0
 26 62  2  0  0  0  0
 27 28  1  0  0  0  0
 27 55  1  0  0  0  0
 28 29  1  0  0  0  0
 29 30  1  0  0  0  0
 29 54  2  0  0  0  0
 30 31  1  0  0  0  0
 30 34  1  0  0  0  0
 31 32  1  0  0  0  0
 31 33  1  0  0  0  0
 34 35  1  0  0  0  0
 34 53  1  0  0  0  0
 35 36  1  0  0  0  0
 35 52  2  0  0  0  0
 36 37  1  0  0  0  0
 36 51  1  0  0  0  0
 36 73  1  0  0  0  0
 37 38  1  0  0  0  0
 38 39  1  0  0  0  0
 39 40  1  0  0  0  0
 39 50  1  0  0  0  0
 40 41  1  0  0  0  0
 40 49  2  0  0  0  0
 41 42  1  0  0  0  0
 42 43  1  0  0  0  0
 43 44  1  0  0  0  0
 43 47  1  0  0  0  0
 43 48  1  0  0  0  0
 44 45  1  0  0  0  0
 44 46  1  0  0  0  0
 50 51  1  0  0  0  0
 55 56  1  0  0  0  0
 56 57  1  0  0  0  0
 56 61  1  0  0  0  0
 57 58  1  0  0  0  0
 58 59  1  0  0  0  0
 58 71  1  0  0  0  0
 59 60  1  0  0  0  0
 60 61  1  0  0  0  0
 63 64  1  0  0  0  0
 64 65  1  0  0  0  0
 67 68  4  0  0  0  0
 67 72  4  0  0  0  0
 68 69  4  0  0  0  0
 69 70  4  0  0  0  0
 70 71  4  0  0  0  0
 71 72  4  0  0  0  0
M  END
$$$$
