mol_ETKDG0_160
  PyMOL3.1          3D                             0

 73 79  0  0  0  0  0  0  0  0999 V2000
    0.1698   16.3613  -11.7517 C   0  0  0  0  0  0  0  0  0  0  0  0
    0.1078   14.8681  -11.5541 C   0  0  0  0  0  0  0  0  0  0  0  0
   -0.1895   14.1777  -12.7243 O   0  0  0  0  0  0  0  0  0  0  0  0
   -1.5633   14.1348  -13.0978 C   0  0  0  0  0  0  0  0  0  0  0  0
    1.3748   14.3221  -11.0339 C   0  0  0  0  0  0  0  0  0  0  0  0
    2.5131   14.9127  -11.3754 N   0  0  0  0  0  0  0  0  0  0  0  0
    3.6873   14.4288  -10.9385 C   0  0  0  0  0  0  0  0  0  0  0  0
    3.7390   13.3173  -10.1069 C   0  0  0  0  0  0  0  0  0  0  0  0
    2.5737   12.7149   -9.7591 C   0  0  0  0  0  0  0  0  0  0  0  0
    1.3897   13.2016  -10.2367 C   0  0  0  0  0  0  0  0  0  0  0  0
    0.1560   12.5644   -9.8727 C   0  0  0  0  0  0  0  0  0  0  0  0
   -0.4262   11.5516  -10.5673 N   0  0  0  0  0  0  0  0  0  0  0  0
    0.1062   10.8491  -11.7409 C   0  0  0  0  0  0  0  0  0  0  0  0
    0.7179    9.5168  -11.2942 C   0  0  0  0  0  0  0  0  0  0  0  0
   -0.6698   12.9241   -8.8161 C   0  0  0  0  0  0  0  0  0  0  0  0
   -0.4929   13.9600   -7.7564 C   0  0  0  0  0  0  0  0  0  0  0  0
    0.1295   13.4494   -6.4294 C   0  0  0  0  0  0  0  0  0  0  0  0
   -0.5998   14.1152   -5.2672 C   0  0  0  0  0  0  0  0  0  0  0  0
    1.6200   13.8329   -6.3682 C   0  0  0  0  0  0  0  0  0  0  0  0
    0.1101   12.0087   -6.2502 C   0  0  0  0  0  0  0  0  0  0  0  0
   -0.5939   11.4415   -5.1184 O   0  0  0  0  0  0  0  0  0  0  0  0
   -0.9016   10.0707   -5.0147 C   0  0  0  0  0  0  0  0  0  0  0  0
   -1.6402    9.7234   -3.7675 C   0  0  0  0  0  0  0  0  0  0  0  0
   -2.3350    8.4590   -3.9709 N   0  0  0  0  0  0  0  0  0  0  0  0
   -3.0271    8.0263   -2.8676 N   0  0  0  0  0  0  0  0  0  0  0  0
   -4.3873    7.9264   -2.8845 C   0  0  0  0  0  0  0  0  0  0  0  0
   -5.0797    8.2323   -4.1839 C   0  0  0  0  0  0  0  0  0  0  0  0
   -6.2702    7.4386   -4.3912 N   0  0  0  0  0  0  0  0  0  0  0  0
   -6.3677    6.4900   -5.3282 C   0  0  0  0  0  0  0  0  0  0  0  0
   -7.7440    5.9122   -5.4486 C   0  0  0  0  0  0  0  0  0  0  0  0
   -7.8254    4.4043   -5.0741 C   0  0  0  0  0  0  0  0  0  0  0  0
   -9.2423    3.8902   -5.2745 C   0  0  0  0  0  0  0  0  0  0  0  0
   -7.4181    4.2106   -3.6090 C   0  0  0  0  0  0  0  0  0  0  0  0
   -8.2477    6.1520   -6.7788 N   0  0  0  0  0  0  0  0  0  0  0  0
   -9.1326    7.1628   -6.9417 C   0  0  0  0  0  0  0  0  0  0  0  0
   -9.8862    7.2839   -8.2340 C   0  0  0  0  0  0  0  0  0  0  0  0
  -10.7785    8.5120   -8.2593 C   0  0  0  0  0  0  0  0  0  0  0  0
  -11.5808    8.5086   -9.5029 C   0  0  0  0  0  0  0  0  0  0  0  0
  -12.3050    7.2366   -9.6142 N   0  0  0  0  0  0  0  0  0  0  0  0
  -13.6441    7.1338   -9.6680 C   0  0  0  0  0  0  0  0  0  0  0  0
  -14.3733    8.2724   -9.4596 C   0  0  0  0  0  0  0  0  0  0  0  0
  -15.0669    9.1372   -9.3498 C   0  0  0  0  0  0  0  0  0  0  0  0
  -15.7577   10.3834   -9.0994 C   0  0  0  0  0  0  0  0  0  0  0  0
  -17.1912   10.2154   -9.3694 N   0  0  0  0  0  0  0  0  0  0  0  0
  -17.8794    9.3643   -8.3732 C   0  0  0  0  0  0  0  0  0  0  0  0
  -17.5039    9.7825  -10.7529 C   0  0  0  0  0  0  0  0  0  0  0  0
  -15.5468   10.7888   -7.6233 C   0  0  0  0  0  0  0  0  0  0  0  0
  -15.1602   11.4715  -10.0160 C   0  0  0  0  0  0  0  0  0  0  0  0
  -14.1929    6.0648   -9.8625 O   0  0  0  0  0  0  0  0  0  0  0  0
  -11.5370    6.0288   -9.5944 C   0  0  0  0  0  0  0  0  0  0  0  0
  -10.7773    6.0454   -8.3202 C   0  0  0  0  0  0  0  0  0  0  0  0
   -9.3611    7.9562   -6.0147 O   0  0  0  0  0  0  0  0  0  0  0  0
   -7.7547    5.2708   -7.8712 C   0  0  0  0  0  0  0  0  0  0  0  0
   -5.4401    6.1549   -6.0439 O   0  0  0  0  0  0  0  0  0  0  0  0
   -5.4996    9.7269   -4.1248 C   0  0  0  0  0  0  0  0  0  0  0  0
   -5.9162   10.2288   -5.4828 C   0  0  0  0  0  0  0  0  0  0  0  0
   -4.6751   10.4442   -6.3056 C   0  0  0  0  0  0  0  0  0  0  0  0
   -5.0107   11.0795   -7.5843 N   0  0  0  0  0  0  0  0  0  0  0  0
   -5.8431   12.3532   -7.3265 C   0  0  0  0  0  0  0  0  0  0  0  0
   -7.0543   12.0253   -6.5472 C   0  0  0  0  0  0  0  0  0  0  0  0
   -6.6587   11.4274   -5.3025 O   0  0  0  0  0  0  0  0  0  0  0  0
   -5.0366    7.6801   -1.8939 O   0  0  0  0  0  0  0  0  0  0  0  0
   -2.2090    7.8048   -1.6714 C   0  0  0  0  0  0  0  0  0  0  0  0
   -1.4616    9.1034   -1.3555 C   0  0  0  0  0  0  0  0  0  0  0  0
   -0.6967    9.5939   -2.5692 C   0  0  0  0  0  0  0  0  0  0  0  0
   -0.6489    9.1530   -5.8301 O   0  0  0  0  0  0  0  0  0  0  0  0
   -1.7518   12.0867   -8.9064 C   0  0  0  0  0  0  0  0  0  0  0  0
   -1.5789   11.2378   -9.9840 C   0  0  0  0  0  0  0  0  0  0  0  0
   -2.5758   10.2750  -10.2723 C   0  0  0  0  0  0  0  0  0  0  0  0
   -3.6968   10.2243   -9.4463 C   0  0  0  0  0  0  0  0  0  0  0  0
   -3.8554   11.1329   -8.3825 C   0  0  0  0  0  0  0  0  0  0  0  0
   -2.8241   12.0441   -8.1215 C   0  0  0  0  0  0  0  0  0  0  0  0
   -9.0114    7.3669   -9.3047 F   0  0  0  0  0  0  0  0  0  0  0  0
  1  2  1  0  0  0  0
  2  3  1  0  0  0  0
  2  5  1  0  0  0  0
  3  4  1  0  0  0  0
  5  6  4  0  0  0  0
  5 10  4  0  0  0  0
  6  7  4  0  0  0  0
  7  8  4  0  0  0  0
  8  9  4  0  0  0  0
  9 10  4  0  0  0  0
 10 11  1  0  0  0  0
 11 12  4  0  0  0  0
 11 15  4  0  0  0  0
 12 13  1  0  0  0  0
 12 68  4  0  0  0  0
 13 14  1  0  0  0  0
 15 16  1  0  0  0  0
 15 67  4  0  0  0  0
 16 17  1  0  0  0  0
 17 18  1  0  0  0  0
 17 19  1  0  0  0  0
 17 20  1  0  0  0  0
 20 21  1  0  0  0  0
 21 22  1  0  0  0  0
 22 23  1  0  0  0  0
 22 66  2  0  0  0  0
 23 24  1  0  0  0  0
 23 65  1  0  0  0  0
 24 25  1  0  0  0  0
 25 26  1  0  0  0  0
 25 63  1  0  0  0  0
 26 27  1  0  0  0  0
 26 62  2  0  0  0  0
 27 28  1  0  0  0  0
 27 55  1  0  0  0  0
 28 29  1  0  0  0  0
 29 30  1  0  0  0  0
 29 54  2  0  0  0  0
 30 31  1  0  0  0  0
 30 34  1  0  0  0  0
 31 32  1  0  0  0  0
 31 33  1  0  0  0  0
 34 35  1  0  0  0  0
 34 53  1  0  0  0  0
 35 36  1  0  0  0  0
 35 52  2  0  0  0  0
 36 37  1  0  0  0  0
 36 51  1  0  0  0  0
 36 73  1  0  0  0  0
 37 38  1  0  0  0  0
 38 39  1  0  0  0  0
 39 40  1  0  0  0  0
 39 50  1  0  0  0  0
 40 41  1  0  0  0  0
 40 49  2  0  0  0  0
 41 42  1  0  0  0  0
 42 43  1  0  0  0  0
 43 44  1  0  0  0  0
 43 47  1  0  0  0  0
 43 48  1  0  0  0  0
 44 45  1  0  0  0  0
 44 46  1  0  0  0  0
 50 51  1  0  0  0  0
 55 56  1  0  0  0  0
 56 57  1  0  0  0  0
 56 61  1  0  0  0  0
 57 58  1  0  0  0  0
 58 59  1  0  0  0  0
 58 71  1  0  0  0  0
 59 60  1  0  0  0  0
 60 61  1  0  0  0  0
 63 64  1  0  0  0  0
 64 65  1  0  0  0  0
 67 68  4  0  0  0  0
 67 72  4  0  0  0  0
 68 69  4  0  0  0  0
 69 70  4  0  0  0  0
 70 71  4  0  0  0  0
 71 72  4  0  0  0  0
M  END
$$$$
