mol_bioactive_15
  PyMOL3.1          3D                             0

 73 79  0  0  0  0  0  0  0  0999 V2000
    0.1174   14.9595  -13.3428 C   0  0  0  0  0  0  0  0  0  0  0  0
    0.0035   14.6702  -11.8543 C   0  0  0  0  0  0  0  0  0  0  0  0
   -0.3185   15.7788  -11.0821 O   0  0  0  0  0  0  0  0  0  0  0  0
   -1.6891   16.1416  -10.9610 C   0  0  0  0  0  0  0  0  0  0  0  0
    1.2632   14.1262  -11.3072 C   0  0  0  0  0  0  0  0  0  0  0  0
    2.4059   14.7274  -11.6182 N   0  0  0  0  0  0  0  0  0  0  0  0
    3.5761   14.2522  -11.1488 C   0  0  0  0  0  0  0  0  0  0  0  0
    3.6174   13.1090  -10.3432 C   0  0  0  0  0  0  0  0  0  0  0  0
    2.4429   12.4893  -10.0293 C   0  0  0  0  0  0  0  0  0  0  0  0
    1.2648   13.0002  -10.5020 C   0  0  0  0  0  0  0  0  0  0  0  0
    0.0221   12.3721  -10.1314 C   0  0  0  0  0  0  0  0  0  0  0  0
   -0.5463   11.3575  -10.8352 N   0  0  0  0  0  0  0  0  0  0  0  0
   -0.0266   10.6977  -12.0417 C   0  0  0  0  0  0  0  0  0  0  0  0
    0.5751    9.3372  -11.6821 C   0  0  0  0  0  0  0  0  0  0  0  0
   -0.8050   12.7268   -9.0745 C   0  0  0  0  0  0  0  0  0  0  0  0
   -0.6437   13.7767   -8.0338 C   0  0  0  0  0  0  0  0  0  0  0  0
    0.0387   13.3257   -6.7113 C   0  0  0  0  0  0  0  0  0  0  0  0
   -0.6573   14.0413   -5.5563 C   0  0  0  0  0  0  0  0  0  0  0  0
    1.5245   13.7488   -6.7159 C   0  0  0  0  0  0  0  0  0  0  0  0
    0.0512   11.8999   -6.4754 C   0  0  0  0  0  0  0  0  0  0  0  0
   -0.6279   11.3787   -5.2968 O   0  0  0  0  0  0  0  0  0  0  0  0
   -0.9456   10.0179   -5.1401 C   0  0  0  0  0  0  0  0  0  0  0  0
   -1.6790    9.7180   -3.8702 C   0  0  0  0  0  0  0  0  0  0  0  0
   -2.3770    8.4564   -4.0457 N   0  0  0  0  0  0  0  0  0  0  0  0
   -3.0733    8.0435   -2.9348 N   0  0  0  0  0  0  0  0  0  0  0  0
   -4.4374    7.9640   -2.9543 C   0  0  0  0  0  0  0  0  0  0  0  0
   -5.1459    8.3066   -4.2475 C   0  0  0  0  0  0  0  0  0  0  0  0
   -6.3350    7.4917   -4.4589 N   0  0  0  0  0  0  0  0  0  0  0  0
   -6.4184    6.4565   -5.3183 C   0  0  0  0  0  0  0  0  0  0  0  0
   -7.7990    5.8802   -5.4495 C   0  0  0  0  0  0  0  0  0  0  0  0
   -7.9150    4.3833   -5.0759 C   0  0  0  0  0  0  0  0  0  0  0  0
   -9.3473    3.8987   -5.3065 C   0  0  0  0  0  0  0  0  0  0  0  0
   -7.5347    4.1750   -3.6050 C   0  0  0  0  0  0  0  0  0  0  0  0
   -8.2748    6.1474   -6.7878 N   0  0  0  0  0  0  0  0  0  0  0  0
   -9.0816    7.2293   -6.9650 C   0  0  0  0  0  0  0  0  0  0  0  0
   -9.7388    7.5216   -8.2862 C   0  0  0  0  0  0  0  0  0  0  0  0
   -9.5043    8.9708   -8.6523 C   0  0  0  0  0  0  0  0  0  0  0  0
  -10.2415    9.2672   -9.9070 C   0  0  0  0  0  0  0  0  0  0  0  0
  -11.6472    8.8797   -9.7447 N   0  0  0  0  0  0  0  0  0  0  0  0
  -12.6718    9.7519   -9.8410 C   0  0  0  0  0  0  0  0  0  0  0  0
  -12.4164   11.1264   -9.9439 C   0  0  0  0  0  0  0  0  0  0  0  0
  -12.4274   12.2531  -10.0441 C   0  0  0  0  0  0  0  0  0  0  0  0
  -12.3371   13.6845  -10.0789 C   0  0  0  0  0  0  0  0  0  0  0  0
  -13.6258   14.2232   -9.5918 N   0  0  0  0  0  0  0  0  0  0  0  0
  -13.9100   13.8692   -8.1767 C   0  0  0  0  0  0  0  0  0  0  0  0
  -14.7683   13.8623  -10.4575 C   0  0  0  0  0  0  0  0  0  0  0  0
  -11.1862   14.1708   -9.1775 C   0  0  0  0  0  0  0  0  0  0  0  0
  -12.0665   14.1179  -11.5234 C   0  0  0  0  0  0  0  0  0  0  0  0
  -13.8156    9.3472   -9.8050 O   0  0  0  0  0  0  0  0  0  0  0  0
  -11.9358    7.4958   -9.3949 C   0  0  0  0  0  0  0  0  0  0  0  0
  -11.2212    7.2044   -8.1100 C   0  0  0  0  0  0  0  0  0  0  0  0
   -9.3292    7.9897   -6.0079 O   0  0  0  0  0  0  0  0  0  0  0  0
   -7.8084    5.2431   -7.8566 C   0  0  0  0  0  0  0  0  0  0  0  0
   -5.4641    6.0709   -5.9838 O   0  0  0  0  0  0  0  0  0  0  0  0
   -5.5410    9.8091   -4.1624 C   0  0  0  0  0  0  0  0  0  0  0  0
   -5.6628   10.5792   -5.4667 C   0  0  0  0  0  0  0  0  0  0  0  0
   -4.9036   10.0061   -6.6525 C   0  0  0  0  0  0  0  0  0  0  0  0
   -5.1825   10.7425   -7.8886 N   0  0  0  0  0  0  0  0  0  0  0  0
   -6.0774   11.9302   -7.7669 C   0  0  0  0  0  0  0  0  0  0  0  0
   -7.2797   11.5982   -6.9475 C   0  0  0  0  0  0  0  0  0  0  0  0
   -7.0367   10.7263   -5.8286 O   0  0  0  0  0  0  0  0  0  0  0  0
   -5.0855    7.7222   -1.9571 O   0  0  0  0  0  0  0  0  0  0  0  0
   -2.2589    7.8513   -1.7320 C   0  0  0  0  0  0  0  0  0  0  0  0
   -1.4954    9.1717   -1.4423 C   0  0  0  0  0  0  0  0  0  0  0  0
   -0.7357    9.6234   -2.6669 C   0  0  0  0  0  0  0  0  0  0  0  0
   -0.7078    9.0658   -5.9278 O   0  0  0  0  0  0  0  0  0  0  0  0
   -1.8815   11.8738   -9.1647 C   0  0  0  0  0  0  0  0  0  0  0  0
   -1.6930   11.0276  -10.2505 C   0  0  0  0  0  0  0  0  0  0  0  0
   -2.6830   10.0485  -10.5488 C   0  0  0  0  0  0  0  0  0  0  0  0
   -3.8075    9.9681   -9.7273 C   0  0  0  0  0  0  0  0  0  0  0  0
   -3.9915   10.8603   -8.6550 C   0  0  0  0  0  0  0  0  0  0  0  0
   -3.0008   11.8106   -8.3744 C   0  0  0  0  0  0  0  0  0  0  0  0
   -9.2652    6.7629   -9.3142 F   0  0  0  0  0  0  0  0  0  0  0  0
  1  2  1  0  0  0  0
  2  3  1  0  0  0  0
  2  5  1  0  0  0  0
  3  4  1  0  0  0  0
  5  6  4  0  0  0  0
  5 10  4  0  0  0  0
  6  7  4  0  0  0  0
  7  8  4  0  0  0  0
  8  9  4  0  0  0  0
  9 10  4  0  0  0  0
 10 11  1  0  0  0  0
 11 12  4  0  0  0  0
 11 15  4  0  0  0  0
 12 13  1  0  0  0  0
 12 68  4  0  0  0  0
 13 14  1  0  0  0  0
 15 16  1  0  0  0  0
 15 67  4  0  0  0  0
 16 17  1  0  0  0  0
 17 18  1  0  0  0  0
 17 19  1  0  0  0  0
 17 20  1  0  0  0  0
 20 21  1  0  0  0  0
 21 22  1  0  0  0  0
 22 23  1  0  0  0  0
 22 66  2  0  0  0  0
 23 24  1  0  0  0  0
 23 65  1  0  0  0  0
 24 25  1  0  0  0  0
 25 26  1  0  0  0  0
 25 63  1  0  0  0  0
 26 27  1  0  0  0  0
 26 62  2  0  0  0  0
 27 28  1  0  0  0  0
 27 55  1  0  0  0  0
 28 29  1  0  0  0  0
 29 30  1  0  0  0  0
 29 54  2  0  0  0  0
 30 31  1  0  0  0  0
 30 34  1  0  0  0  0
 31 32  1  0  0  0  0
 31 33  1  0  0  0  0
 34 35  1  0  0  0  0
 34 53  1  0  0  0  0
 35 36  1  0  0  0  0
 35 52  2  0  0  0  0
 36 37  1  0  0  0  0
 36 51  1  0  0  0  0
 36 73  1  0  0  0  0
 37 38  1  0  0  0  0
 38 39  1  0  0  0  0
 39 40  1  0  0  0  0
 39 50  1  0  0  0  0
 40 41  1  0  0  0  0
 40 49  2  0  0  0  0
 41 42  1  0  0  0  0
 42 43  1  0  0  0  0
 43 44  1  0  0  0  0
 43 47  1  0  0  0  0
 43 48  1  0  0  0  0
 44 45  1  0  0  0  0
 44 46  1  0  0  0  0
 50 51  1  0  0  0  0
 55 56  1  0  0  0  0
 56 57  1  0  0  0  0
 56 61  1  0  0  0  0
 57 58  1  0  0  0  0
 58 59  1  0  0  0  0
 58 71  1  0  0  0  0
 59 60  1  0  0  0  0
 60 61  1  0  0  0  0
 63 64  1  0  0  0  0
 64 65  1  0  0  0  0
 67 68  4  0  0  0  0
 67 72  4  0  0  0  0
 68 69  4  0  0  0  0
 69 70  4  0  0  0  0
 70 71  4  0  0  0  0
 71 72  4  0  0  0  0
M  END
$$$$
