mol_ETKDG5_138
  PyMOL3.1          3D                             0

 73 79  0  0  0  0  0  0  0  0999 V2000
   -0.4192   16.2328  -11.8138 C   0  0  0  0  0  0  0  0  0  0  0  0
   -0.4897   14.7337  -11.6318 C   0  0  0  0  0  0  0  0  0  0  0  0
   -0.9432   14.0677  -12.7883 O   0  0  0  0  0  0  0  0  0  0  0  0
   -2.3493   13.9989  -12.9807 C   0  0  0  0  0  0  0  0  0  0  0  0
    0.8141   14.1375  -11.2715 C   0  0  0  0  0  0  0  0  0  0  0  0
    1.9286   14.7490  -11.6436 N   0  0  0  0  0  0  0  0  0  0  0  0
    3.1279   14.2218  -11.3493 C   0  0  0  0  0  0  0  0  0  0  0  0
    3.2344   13.0365  -10.6260 C   0  0  0  0  0  0  0  0  0  0  0  0
    2.0934   12.4063  -10.2439 C   0  0  0  0  0  0  0  0  0  0  0  0
    0.8865   12.9488  -10.5840 C   0  0  0  0  0  0  0  0  0  0  0  0
   -0.3255   12.2889  -10.1698 C   0  0  0  0  0  0  0  0  0  0  0  0
   -0.9179   11.2643  -10.8474 N   0  0  0  0  0  0  0  0  0  0  0  0
   -0.4368   10.5801  -12.0478 C   0  0  0  0  0  0  0  0  0  0  0  0
    0.2495    9.2636  -11.6398 C   0  0  0  0  0  0  0  0  0  0  0  0
   -1.1015   12.6570   -9.0808 C   0  0  0  0  0  0  0  0  0  0  0  0
   -0.9008   13.7109   -8.0443 C   0  0  0  0  0  0  0  0  0  0  0  0
   -0.1245   13.2452   -6.7659 C   0  0  0  0  0  0  0  0  0  0  0  0
   -0.6943   13.9909   -5.5521 C   0  0  0  0  0  0  0  0  0  0  0  0
    1.3738   13.6137   -6.8886 C   0  0  0  0  0  0  0  0  0  0  0  0
   -0.1484   11.8513   -6.5298 C   0  0  0  0  0  0  0  0  0  0  0  0
   -0.8143   11.3366   -5.3392 O   0  0  0  0  0  0  0  0  0  0  0  0
   -1.0616    9.9689   -5.1499 C   0  0  0  0  0  0  0  0  0  0  0  0
   -1.7738    9.6761   -3.8775 C   0  0  0  0  0  0  0  0  0  0  0  0
   -2.4752    8.4119   -4.0466 N   0  0  0  0  0  0  0  0  0  0  0  0
   -3.1427    7.9988   -2.9163 N   0  0  0  0  0  0  0  0  0  0  0  0
   -4.5011    7.8944   -2.9034 C   0  0  0  0  0  0  0  0  0  0  0  0
   -5.2203    8.1525   -4.2044 C   0  0  0  0  0  0  0  0  0  0  0  0
   -6.3914    7.3210   -4.3785 N   0  0  0  0  0  0  0  0  0  0  0  0
   -6.4803    6.3382   -5.2893 C   0  0  0  0  0  0  0  0  0  0  0  0
   -7.8423    5.7330   -5.3836 C   0  0  0  0  0  0  0  0  0  0  0  0
   -7.9058    4.2325   -4.9732 C   0  0  0  0  0  0  0  0  0  0  0  0
   -9.3253    3.6995   -5.1577 C   0  0  0  0  0  0  0  0  0  0  0  0
   -7.5007    4.0885   -3.4975 C   0  0  0  0  0  0  0  0  0  0  0  0
   -8.3707    5.9395   -6.7089 N   0  0  0  0  0  0  0  0  0  0  0  0
   -9.2367    6.9629   -6.8883 C   0  0  0  0  0  0  0  0  0  0  0  0
  -10.0674    7.0391   -8.1445 C   0  0  0  0  0  0  0  0  0  0  0  0
  -10.8848    8.3200   -8.1829 C   0  0  0  0  0  0  0  0  0  0  0  0
  -11.8220    8.2800   -9.3391 C   0  0  0  0  0  0  0  0  0  0  0  0
  -12.6249    7.0601   -9.2398 N   0  0  0  0  0  0  0  0  0  0  0  0
  -13.9594    7.0378   -9.0134 C   0  0  0  0  0  0  0  0  0  0  0  0
  -14.6042    8.2405   -8.7141 C   0  0  0  0  0  0  0  0  0  0  0  0
  -15.2034    9.1728   -8.4615 C   0  0  0  0  0  0  0  0  0  0  0  0
  -15.8659   10.3930   -8.0603 C   0  0  0  0  0  0  0  0  0  0  0  0
  -15.0173   11.1155   -7.0823 N   0  0  0  0  0  0  0  0  0  0  0  0
  -14.5879   10.2698   -5.9515 C   0  0  0  0  0  0  0  0  0  0  0  0
  -13.8691   11.8347   -7.6807 C   0  0  0  0  0  0  0  0  0  0  0  0
  -17.2043   10.0652   -7.4073 C   0  0  0  0  0  0  0  0  0  0  0  0
  -16.0968   11.2565   -9.3026 C   0  0  0  0  0  0  0  0  0  0  0  0
  -14.5801    5.9916   -9.0340 O   0  0  0  0  0  0  0  0  0  0  0  0
  -11.9133    5.8071   -9.2694 C   0  0  0  0  0  0  0  0  0  0  0  0
  -11.0089    5.8305   -8.0799 C   0  0  0  0  0  0  0  0  0  0  0  0
   -9.4111    7.8090   -5.9875 O   0  0  0  0  0  0  0  0  0  0  0  0
   -7.9123    5.0049   -7.7871 C   0  0  0  0  0  0  0  0  0  0  0  0
   -5.5476    5.9914   -6.0118 O   0  0  0  0  0  0  0  0  0  0  0  0
   -5.6929    9.6345   -4.1850 C   0  0  0  0  0  0  0  0  0  0  0  0
   -6.1818   10.0594   -5.5499 C   0  0  0  0  0  0  0  0  0  0  0  0
   -4.9657   10.2835   -6.4036 C   0  0  0  0  0  0  0  0  0  0  0  0
   -5.3706   10.8088   -7.7125 N   0  0  0  0  0  0  0  0  0  0  0  0
   -6.2552   12.0476   -7.5586 C   0  0  0  0  0  0  0  0  0  0  0  0
   -7.4407   11.7183   -6.7072 C   0  0  0  0  0  0  0  0  0  0  0  0
   -6.9807   11.2280   -5.4322 O   0  0  0  0  0  0  0  0  0  0  0  0
   -5.1271    7.6782   -1.8951 O   0  0  0  0  0  0  0  0  0  0  0  0
   -2.3049    7.8025   -1.7360 C   0  0  0  0  0  0  0  0  0  0  0  0
   -1.5317    9.1268   -1.4561 C   0  0  0  0  0  0  0  0  0  0  0  0
   -0.7993    9.5730   -2.7023 C   0  0  0  0  0  0  0  0  0  0  0  0
   -0.7749    8.9973   -5.9065 O   0  0  0  0  0  0  0  0  0  0  0  0
   -2.1726   11.8053   -9.1340 C   0  0  0  0  0  0  0  0  0  0  0  0
   -2.0342   10.9475  -10.2154 C   0  0  0  0  0  0  0  0  0  0  0  0
   -3.0448    9.9723  -10.4596 C   0  0  0  0  0  0  0  0  0  0  0  0
   -4.1256    9.9323   -9.6023 C   0  0  0  0  0  0  0  0  0  0  0  0
   -4.2461   10.8512   -8.5409 C   0  0  0  0  0  0  0  0  0  0  0  0
   -3.2231   11.7660   -8.3087 C   0  0  0  0  0  0  0  0  0  0  0  0
   -9.2564    6.9967   -9.2732 F   0  0  0  0  0  0  0  0  0  0  0  0
  1  2  1  0  0  0  0
  2  3  1  0  0  0  0
  2  5  1  0  0  0  0
  3  4  1  0  0  0  0
  5  6  4  0  0  0  0
  5 10  4  0  0  0  0
  6  7  4  0  0  0  0
  7  8  4  0  0  0  0
  8  9  4  0  0  0  0
  9 10  4  0  0  0  0
 10 11  1  0  0  0  0
 11 12  4  0  0  0  0
 11 15  4  0  0  0  0
 12 13  1  0  0  0  0
 12 68  4  0  0  0  0
 13 14  1  0  0  0  0
 15 16  1  0  0  0  0
 15 67  4  0  0  0  0
 16 17  1  0  0  0  0
 17 18  1  0  0  0  0
 17 19  1  0  0  0  0
 17 20  1  0  0  0  0
 20 21  1  0  0  0  0
 21 22  1  0  0  0  0
 22 23  1  0  0  0  0
 22 66  2  0  0  0  0
 23 24  1  0  0  0  0
 23 65  1  0  0  0  0
 24 25  1  0  0  0  0
 25 26  1  0  0  0  0
 25 63  1  0  0  0  0
 26 27  1  0  0  0  0
 26 62  2  0  0  0  0
 27 28  1  0  0  0  0
 27 55  1  0  0  0  0
 28 29  1  0  0  0  0
 29 30  1  0  0  0  0
 29 54  2  0  0  0  0
 30 31  1  0  0  0  0
 30 34  1  0  0  0  0
 31 32  1  0  0  0  0
 31 33  1  0  0  0  0
 34 35  1  0  0  0  0
 34 53  1  0  0  0  0
 35 36  1  0  0  0  0
 35 52  2  0  0  0  0
 36 37  1  0  0  0  0
 36 51  1  0  0  0  0
 36 73  1  0  0  0  0
 37 38  1  0  0  0  0
 38 39  1  0  0  0  0
 39 40  1  0  0  0  0
 39 50  1  0  0  0  0
 40 41  1  0  0  0  0
 40 49  2  0  0  0  0
 41 42  1  0  0  0  0
 42 43  1  0  0  0  0
 43 44  1  0  0  0  0
 43 47  1  0  0  0  0
 43 48  1  0  0  0  0
 44 45  1  0  0  0  0
 44 46  1  0  0  0  0
 50 51  1  0  0  0  0
 55 56  1  0  0  0  0
 56 57  1  0  0  0  0
 56 61  1  0  0  0  0
 57 58  1  0  0  0  0
 58 59  1  0  0  0  0
 58 71  1  0  0  0  0
 59 60  1  0  0  0  0
 60 61  1  0  0  0  0
 63 64  1  0  0  0  0
 64 65  1  0  0  0  0
 67 68  4  0  0  0  0
 67 72  4  0  0  0  0
 68 69  4  0  0  0  0
 69 70  4  0  0  0  0
 70 71  4  0  0  0  0
 71 72  4  0  0  0  0
M  END
$$$$
