mol_ETKDG1_37
  PyMOL3.1          3D                             0

 73 79  0  0  0  0  0  0  0  0999 V2000
   -0.0160   16.6872  -11.2277 C   0  0  0  0  0  0  0  0  0  0  0  0
   -0.2106   15.1994  -11.0692 C   0  0  0  0  0  0  0  0  0  0  0  0
   -0.7731   14.6095  -12.2037 O   0  0  0  0  0  0  0  0  0  0  0  0
   -2.1969   14.5393  -12.2445 C   0  0  0  0  0  0  0  0  0  0  0  0
    1.0634   14.4844  -10.7861 C   0  0  0  0  0  0  0  0  0  0  0  0
    2.2120   15.0433  -11.1158 N   0  0  0  0  0  0  0  0  0  0  0  0
    3.3717   14.4155  -10.9098 C   0  0  0  0  0  0  0  0  0  0  0  0
    3.4060   13.1575  -10.3199 C   0  0  0  0  0  0  0  0  0  0  0  0
    2.2368   12.5796   -9.9748 C   0  0  0  0  0  0  0  0  0  0  0  0
    1.0641   13.2316  -10.2234 C   0  0  0  0  0  0  0  0  0  0  0  0
   -0.1682   12.6195   -9.8411 C   0  0  0  0  0  0  0  0  0  0  0  0
   -0.8151   11.6579  -10.5598 N   0  0  0  0  0  0  0  0  0  0  0  0
   -0.3815   11.0260  -11.8080 C   0  0  0  0  0  0  0  0  0  0  0  0
    0.2526    9.6609  -11.5036 C   0  0  0  0  0  0  0  0  0  0  0  0
   -0.9236   12.9566   -8.7311 C   0  0  0  0  0  0  0  0  0  0  0  0
   -0.6787   13.9602   -7.6582 C   0  0  0  0  0  0  0  0  0  0  0  0
    0.1175   13.4407   -6.4391 C   0  0  0  0  0  0  0  0  0  0  0  0
   -0.3845   14.1438   -5.1735 C   0  0  0  0  0  0  0  0  0  0  0  0
    1.6264   13.7244   -6.5898 C   0  0  0  0  0  0  0  0  0  0  0  0
    0.0334   12.0174   -6.2581 C   0  0  0  0  0  0  0  0  0  0  0  0
   -0.6666   11.4712   -5.1112 O   0  0  0  0  0  0  0  0  0  0  0  0
   -0.9111   10.0986   -4.9731 C   0  0  0  0  0  0  0  0  0  0  0  0
   -1.6376    9.7637   -3.7195 C   0  0  0  0  0  0  0  0  0  0  0  0
   -2.3510    8.5208   -3.9365 N   0  0  0  0  0  0  0  0  0  0  0  0
   -3.0233    8.0613   -2.8344 N   0  0  0  0  0  0  0  0  0  0  0  0
   -4.3786    7.9588   -2.8256 C   0  0  0  0  0  0  0  0  0  0  0  0
   -5.1013    8.3022   -4.0971 C   0  0  0  0  0  0  0  0  0  0  0  0
   -6.2774    7.4883   -4.3168 N   0  0  0  0  0  0  0  0  0  0  0  0
   -6.3626    6.5577   -5.2670 C   0  0  0  0  0  0  0  0  0  0  0  0
   -7.7230    5.9598   -5.4196 C   0  0  0  0  0  0  0  0  0  0  0  0
   -7.7815    4.4481   -5.0501 C   0  0  0  0  0  0  0  0  0  0  0  0
   -9.1792    3.9051   -5.2934 C   0  0  0  0  0  0  0  0  0  0  0  0
   -7.4051    4.2619   -3.5768 C   0  0  0  0  0  0  0  0  0  0  0  0
   -8.1957    6.1745   -6.7610 N   0  0  0  0  0  0  0  0  0  0  0  0
   -9.1343    7.1359   -6.9475 C   0  0  0  0  0  0  0  0  0  0  0  0
   -9.8633    7.2099   -8.2672 C   0  0  0  0  0  0  0  0  0  0  0  0
  -10.8770    8.3493   -8.3119 C   0  0  0  0  0  0  0  0  0  0  0  0
  -11.6445    8.2699   -9.5718 C   0  0  0  0  0  0  0  0  0  0  0  0
  -12.2321    6.9248   -9.7130 N   0  0  0  0  0  0  0  0  0  0  0  0
  -13.5377    6.6578   -9.8367 C   0  0  0  0  0  0  0  0  0  0  0  0
  -14.4598    7.7002   -9.8039 C   0  0  0  0  0  0  0  0  0  0  0  0
  -15.3340    8.4498   -9.8181 C   0  0  0  0  0  0  0  0  0  0  0  0
  -16.3523    9.4531   -9.7527 C   0  0  0  0  0  0  0  0  0  0  0  0
  -16.0234   10.4218   -8.7008 N   0  0  0  0  0  0  0  0  0  0  0  0
  -15.8032    9.8025   -7.3871 C   0  0  0  0  0  0  0  0  0  0  0  0
  -14.9445   11.3526   -9.0470 C   0  0  0  0  0  0  0  0  0  0  0  0
  -17.6931    8.7837   -9.4145 C   0  0  0  0  0  0  0  0  0  0  0  0
  -16.4206   10.1437  -11.1180 C   0  0  0  0  0  0  0  0  0  0  0  0
  -13.9334    5.5090   -9.9675 O   0  0  0  0  0  0  0  0  0  0  0  0
  -11.3347    5.8087   -9.6575 C   0  0  0  0  0  0  0  0  0  0  0  0
  -10.6291    5.9009   -8.3674 C   0  0  0  0  0  0  0  0  0  0  0  0
   -9.4360    7.9122   -6.0317 O   0  0  0  0  0  0  0  0  0  0  0  0
   -7.6190    5.3271   -7.8387 C   0  0  0  0  0  0  0  0  0  0  0  0
   -5.4119    6.2428   -5.9753 O   0  0  0  0  0  0  0  0  0  0  0  0
   -5.5567    9.7800   -3.9599 C   0  0  0  0  0  0  0  0  0  0  0  0
   -6.0435   10.3153   -5.2802 C   0  0  0  0  0  0  0  0  0  0  0  0
   -4.8348   10.5657   -6.1281 C   0  0  0  0  0  0  0  0  0  0  0  0
   -5.2412   11.1829   -7.3900 N   0  0  0  0  0  0  0  0  0  0  0  0
   -6.0639   12.4511   -7.1128 C   0  0  0  0  0  0  0  0  0  0  0  0
   -7.2482   12.1051   -6.2741 C   0  0  0  0  0  0  0  0  0  0  0  0
   -6.7952   11.5008   -5.0542 O   0  0  0  0  0  0  0  0  0  0  0  0
   -5.0117    7.6830   -1.8400 O   0  0  0  0  0  0  0  0  0  0  0  0
   -2.1870    7.7961   -1.6774 C   0  0  0  0  0  0  0  0  0  0  0  0
   -1.4193    9.1005   -1.3324 C   0  0  0  0  0  0  0  0  0  0  0  0
   -0.6714    9.6027   -2.5495 C   0  0  0  0  0  0  0  0  0  0  0  0
   -0.6110    9.1482   -5.7511 O   0  0  0  0  0  0  0  0  0  0  0  0
   -2.0264   12.1535   -8.8041 C   0  0  0  0  0  0  0  0  0  0  0  0
   -1.9343   11.3509   -9.9311 C   0  0  0  0  0  0  0  0  0  0  0  0
   -2.9756   10.4307  -10.2099 C   0  0  0  0  0  0  0  0  0  0  0  0
   -4.0487   10.3745   -9.3418 C   0  0  0  0  0  0  0  0  0  0  0  0
   -4.1301   11.2369   -8.2299 C   0  0  0  0  0  0  0  0  0  0  0  0
   -3.0664   12.1020   -7.9715 C   0  0  0  0  0  0  0  0  0  0  0  0
   -8.9544    7.3686   -9.3038 F   0  0  0  0  0  0  0  0  0  0  0  0
  1  2  1  0  0  0  0
  2  3  1  0  0  0  0
  2  5  1  0  0  0  0
  3  4  1  0  0  0  0
  5  6  4  0  0  0  0
  5 10  4  0  0  0  0
  6  7  4  0  0  0  0
  7  8  4  0  0  0  0
  8  9  4  0  0  0  0
  9 10  4  0  0  0  0
 10 11  1  0  0  0  0
 11 12  4  0  0  0  0
 11 15  4  0  0  0  0
 12 13  1  0  0  0  0
 12 68  4  0  0  0  0
 13 14  1  0  0  0  0
 15 16  1  0  0  0  0
 15 67  4  0  0  0  0
 16 17  1  0  0  0  0
 17 18  1  0  0  0  0
 17 19  1  0  0  0  0
 17 20  1  0  0  0  0
 20 21  1  0  0  0  0
 21 22  1  0  0  0  0
 22 23  1  0  0  0  0
 22 66  2  0  0  0  0
 23 24  1  0  0  0  0
 23 65  1  0  0  0  0
 24 25  1  0  0  0  0
 25 26  1  0  0  0  0
 25 63  1  0  0  0  0
 26 27  1  0  0  0  0
 26 62  2  0  0  0  0
 27 28  1  0  0  0  0
 27 55  1  0  0  0  0
 28 29  1  0  0  0  0
 29 30  1  0  0  0  0
 29 54  2  0  0  0  0
 30 31  1  0  0  0  0
 30 34  1  0  0  0  0
 31 32  1  0  0  0  0
 31 33  1  0  0  0  0
 34 35  1  0  0  0  0
 34 53  1  0  0  0  0
 35 36  1  0  0  0  0
 35 52  2  0  0  0  0
 36 37  1  0  0  0  0
 36 51  1  0  0  0  0
 36 73  1  0  0  0  0
 37 38  1  0  0  0  0
 38 39  1  0  0  0  0
 39 40  1  0  0  0  0
 39 50  1  0  0  0  0
 40 41  1  0  0  0  0
 40 49  2  0  0  0  0
 41 42  1  0  0  0  0
 42 43  1  0  0  0  0
 43 44  1  0  0  0  0
 43 47  1  0  0  0  0
 43 48  1  0  0  0  0
 44 45  1  0  0  0  0
 44 46  1  0  0  0  0
 50 51  1  0  0  0  0
 55 56  1  0  0  0  0
 56 57  1  0  0  0  0
 56 61  1  0  0  0  0
 57 58  1  0  0  0  0
 58 59  1  0  0  0  0
 58 71  1  0  0  0  0
 59 60  1  0  0  0  0
 60 61  1  0  0  0  0
 63 64  1  0  0  0  0
 64 65  1  0  0  0  0
 67 68  4  0  0  0  0
 67 72  4  0  0  0  0
 68 69  4  0  0  0  0
 69 70  4  0  0  0  0
 70 71  4  0  0  0  0
 71 72  4  0  0  0  0
M  END
$$$$
