mol_ETKDG0_154
  PyMOL3.1          3D                             0

 73 79  0  0  0  0  0  0  0  0999 V2000
    0.1272   16.5392  -11.3355 C   0  0  0  0  0  0  0  0  0  0  0  0
   -0.1073   15.0480  -11.3486 C   0  0  0  0  0  0  0  0  0  0  0  0
   -0.5853   14.5727  -12.5707 O   0  0  0  0  0  0  0  0  0  0  0  0
   -1.9962   14.5951  -12.7617 C   0  0  0  0  0  0  0  0  0  0  0  0
    1.1265   14.2853  -11.0304 C   0  0  0  0  0  0  0  0  0  0  0  0
    2.3067   14.7833  -11.3862 N   0  0  0  0  0  0  0  0  0  0  0  0
    3.4426   14.0940  -11.1366 C   0  0  0  0  0  0  0  0  0  0  0  0
    3.4129   12.8659  -10.4804 C   0  0  0  0  0  0  0  0  0  0  0  0
    2.2048   12.3640  -10.1154 C   0  0  0  0  0  0  0  0  0  0  0  0
    1.0634   13.0642  -10.4079 C   0  0  0  0  0  0  0  0  0  0  0  0
   -0.2011   12.5240  -10.0164 C   0  0  0  0  0  0  0  0  0  0  0  0
   -0.8970   11.6059  -10.7383 N   0  0  0  0  0  0  0  0  0  0  0  0
   -0.5149   10.9750  -12.0111 C   0  0  0  0  0  0  0  0  0  0  0  0
    0.0631    9.5759  -11.7598 C   0  0  0  0  0  0  0  0  0  0  0  0
   -0.9328   12.8881   -8.8924 C   0  0  0  0  0  0  0  0  0  0  0  0
   -0.6296   13.8847   -7.8103 C   0  0  0  0  0  0  0  0  0  0  0  0
    0.0824   13.3251   -6.5570 C   0  0  0  0  0  0  0  0  0  0  0  0
   -0.4910   14.0213   -5.3219 C   0  0  0  0  0  0  0  0  0  0  0  0
    1.5984   13.6193   -6.6187 C   0  0  0  0  0  0  0  0  0  0  0  0
   -0.0148   11.9031   -6.4008 C   0  0  0  0  0  0  0  0  0  0  0  0
   -0.6769   11.3681   -5.2270 O   0  0  0  0  0  0  0  0  0  0  0  0
   -0.9918   10.0075   -5.0908 C   0  0  0  0  0  0  0  0  0  0  0  0
   -1.7096    9.7049   -3.8265 C   0  0  0  0  0  0  0  0  0  0  0  0
   -2.4295    8.4517   -4.0027 N   0  0  0  0  0  0  0  0  0  0  0  0
   -3.0947    8.0298   -2.8841 N   0  0  0  0  0  0  0  0  0  0  0  0
   -4.4585    7.9415   -2.8679 C   0  0  0  0  0  0  0  0  0  0  0  0
   -5.1832    8.2637   -4.1474 C   0  0  0  0  0  0  0  0  0  0  0  0
   -6.3702    7.4556   -4.3445 N   0  0  0  0  0  0  0  0  0  0  0  0
   -6.4575    6.4828   -5.2602 C   0  0  0  0  0  0  0  0  0  0  0  0
   -7.8376    5.9081   -5.3901 C   0  0  0  0  0  0  0  0  0  0  0  0
   -7.9311    4.3957   -5.0344 C   0  0  0  0  0  0  0  0  0  0  0  0
   -9.3556    3.8961   -5.2540 C   0  0  0  0  0  0  0  0  0  0  0  0
   -7.5376    4.1795   -3.5666 C   0  0  0  0  0  0  0  0  0  0  0  0
   -8.3342    6.1694   -6.7222 N   0  0  0  0  0  0  0  0  0  0  0  0
   -9.2100    7.1957   -6.8645 C   0  0  0  0  0  0  0  0  0  0  0  0
   -9.9646    7.3870   -8.1533 C   0  0  0  0  0  0  0  0  0  0  0  0
  -10.8491    8.6280   -8.0764 C   0  0  0  0  0  0  0  0  0  0  0  0
  -11.7128    8.7217   -9.2761 C   0  0  0  0  0  0  0  0  0  0  0  0
  -12.4448    7.4642   -9.4423 N   0  0  0  0  0  0  0  0  0  0  0  0
  -13.7920    7.3386   -9.3462 C   0  0  0  0  0  0  0  0  0  0  0  0
  -14.5110    8.2905   -8.6481 C   0  0  0  0  0  0  0  0  0  0  0  0
  -15.2189    8.9622   -8.0802 C   0  0  0  0  0  0  0  0  0  0  0  0
  -15.9634    9.8821   -7.2415 C   0  0  0  0  0  0  0  0  0  0  0  0
  -16.2486    9.2387   -5.9417 N   0  0  0  0  0  0  0  0  0  0  0  0
  -15.0500    9.0664   -5.0878 C   0  0  0  0  0  0  0  0  0  0  0  0
  -17.0143    7.9716   -6.0647 C   0  0  0  0  0  0  0  0  0  0  0  0
  -15.1348   11.1686   -7.0179 C   0  0  0  0  0  0  0  0  0  0  0  0
  -17.2768   10.2227   -7.9625 C   0  0  0  0  0  0  0  0  0  0  0  0
  -14.3714    6.3656   -9.8090 O   0  0  0  0  0  0  0  0  0  0  0  0
  -11.6608    6.2721   -9.5938 C   0  0  0  0  0  0  0  0  0  0  0  0
  -10.8621    6.1625   -8.3251 C   0  0  0  0  0  0  0  0  0  0  0  0
   -9.4289    7.9681   -5.9128 O   0  0  0  0  0  0  0  0  0  0  0  0
   -7.8451    5.3038   -7.8316 C   0  0  0  0  0  0  0  0  0  0  0  0
   -5.5181    6.1350   -5.9600 O   0  0  0  0  0  0  0  0  0  0  0  0
   -5.6140    9.7588   -4.0439 C   0  0  0  0  0  0  0  0  0  0  0  0
   -6.0956   10.2946   -5.3715 C   0  0  0  0  0  0  0  0  0  0  0  0
   -4.8954   10.5091   -6.2556 C   0  0  0  0  0  0  0  0  0  0  0  0
   -5.2929   11.1927   -7.5002 N   0  0  0  0  0  0  0  0  0  0  0  0
   -6.0809   12.4680   -7.1888 C   0  0  0  0  0  0  0  0  0  0  0  0
   -7.2661   12.1376   -6.3425 C   0  0  0  0  0  0  0  0  0  0  0  0
   -6.8066   11.5115   -5.1329 O   0  0  0  0  0  0  0  0  0  0  0  0
   -5.0886    7.7006   -1.8619 O   0  0  0  0  0  0  0  0  0  0  0  0
   -2.2454    7.8084   -1.7046 C   0  0  0  0  0  0  0  0  0  0  0  0
   -1.4818    9.1074   -1.4130 C   0  0  0  0  0  0  0  0  0  0  0  0
   -0.7363    9.5794   -2.6466 C   0  0  0  0  0  0  0  0  0  0  0  0
   -0.7621    9.0566   -5.8864 O   0  0  0  0  0  0  0  0  0  0  0  0
   -2.0691   12.1265   -8.9580 C   0  0  0  0  0  0  0  0  0  0  0  0
   -2.0226   11.3349  -10.0982 C   0  0  0  0  0  0  0  0  0  0  0  0
   -3.0960   10.4540  -10.3790 C   0  0  0  0  0  0  0  0  0  0  0  0
   -4.1612   10.4167   -9.4870 C   0  0  0  0  0  0  0  0  0  0  0  0
   -4.1907   11.2524   -8.3595 C   0  0  0  0  0  0  0  0  0  0  0  0
   -3.1056   12.0968   -8.0997 C   0  0  0  0  0  0  0  0  0  0  0  0
   -9.0828    7.5214   -9.2224 F   0  0  0  0  0  0  0  0  0  0  0  0
  1  2  1  0  0  0  0
  2  3  1  0  0  0  0
  2  5  1  0  0  0  0
  3  4  1  0  0  0  0
  5  6  4  0  0  0  0
  5 10  4  0  0  0  0
  6  7  4  0  0  0  0
  7  8  4  0  0  0  0
  8  9  4  0  0  0  0
  9 10  4  0  0  0  0
 10 11  1  0  0  0  0
 11 12  4  0  0  0  0
 11 15  4  0  0  0  0
 12 13  1  0  0  0  0
 12 68  4  0  0  0  0
 13 14  1  0  0  0  0
 15 16  1  0  0  0  0
 15 67  4  0  0  0  0
 16 17  1  0  0  0  0
 17 18  1  0  0  0  0
 17 19  1  0  0  0  0
 17 20  1  0  0  0  0
 20 21  1  0  0  0  0
 21 22  1  0  0  0  0
 22 23  1  0  0  0  0
 22 66  2  0  0  0  0
 23 24  1  0  0  0  0
 23 65  1  0  0  0  0
 24 25  1  0  0  0  0
 25 26  1  0  0  0  0
 25 63  1  0  0  0  0
 26 27  1  0  0  0  0
 26 62  2  0  0  0  0
 27 28  1  0  0  0  0
 27 55  1  0  0  0  0
 28 29  1  0  0  0  0
 29 30  1  0  0  0  0
 29 54  2  0  0  0  0
 30 31  1  0  0  0  0
 30 34  1  0  0  0  0
 31 32  1  0  0  0  0
 31 33  1  0  0  0  0
 34 35  1  0  0  0  0
 34 53  1  0  0  0  0
 35 36  1  0  0  0  0
 35 52  2  0  0  0  0
 36 37  1  0  0  0  0
 36 51  1  0  0  0  0
 36 73  1  0  0  0  0
 37 38  1  0  0  0  0
 38 39  1  0  0  0  0
 39 40  1  0  0  0  0
 39 50  1  0  0  0  0
 40 41  1  0  0  0  0
 40 49  2  0  0  0  0
 41 42  1  0  0  0  0
 42 43  1  0  0  0  0
 43 44  1  0  0  0  0
 43 47  1  0  0  0  0
 43 48  1  0  0  0  0
 44 45  1  0  0  0  0
 44 46  1  0  0  0  0
 50 51  1  0  0  0  0
 55 56  1  0  0  0  0
 56 57  1  0  0  0  0
 56 61  1  0  0  0  0
 57 58  1  0  0  0  0
 58 59  1  0  0  0  0
 58 71  1  0  0  0  0
 59 60  1  0  0  0  0
 60 61  1  0  0  0  0
 63 64  1  0  0  0  0
 64 65  1  0  0  0  0
 67 68  4  0  0  0  0
 67 72  4  0  0  0  0
 68 69  4  0  0  0  0
 69 70  4  0  0  0  0
 70 71  4  0  0  0  0
 71 72  4  0  0  0  0
M  END
$$$$
