mol_ETKDG5_130
  PyMOL3.1          3D                             0

 73 79  0  0  0  0  0  0  0  0999 V2000
   -0.1292   15.7548  -13.1109 C   0  0  0  0  0  0  0  0  0  0  0  0
   -0.1858   15.2471  -11.6786 C   0  0  0  0  0  0  0  0  0  0  0  0
   -0.4105   16.2795  -10.7481 O   0  0  0  0  0  0  0  0  0  0  0  0
   -1.7555   16.6632  -10.4902 C   0  0  0  0  0  0  0  0  0  0  0  0
    1.0693   14.5708  -11.2802 C   0  0  0  0  0  0  0  0  0  0  0  0
    2.2193   15.1499  -11.5964 N   0  0  0  0  0  0  0  0  0  0  0  0
    3.3854   14.5541  -11.2791 C   0  0  0  0  0  0  0  0  0  0  0  0
    3.4148   13.3116  -10.6332 C   0  0  0  0  0  0  0  0  0  0  0  0
    2.2329   12.7183  -10.3171 C   0  0  0  0  0  0  0  0  0  0  0  0
    1.0581   13.3500  -10.6312 C   0  0  0  0  0  0  0  0  0  0  0  0
   -0.1901   12.7370  -10.2318 C   0  0  0  0  0  0  0  0  0  0  0  0
   -0.8733   11.8227  -10.9734 N   0  0  0  0  0  0  0  0  0  0  0  0
   -0.4944   11.2816  -12.2801 C   0  0  0  0  0  0  0  0  0  0  0  0
    0.0539    9.8628  -12.1208 C   0  0  0  0  0  0  0  0  0  0  0  0
   -0.9056   13.0317   -9.0761 C   0  0  0  0  0  0  0  0  0  0  0  0
   -0.6154   13.9835   -7.9603 C   0  0  0  0  0  0  0  0  0  0  0  0
    0.1252   13.3805   -6.7197 C   0  0  0  0  0  0  0  0  0  0  0  0
   -0.3805   14.1007   -5.4638 C   0  0  0  0  0  0  0  0  0  0  0  0
    1.6530   13.6251   -6.8295 C   0  0  0  0  0  0  0  0  0  0  0  0
   -0.0226   11.9638   -6.5646 C   0  0  0  0  0  0  0  0  0  0  0  0
   -0.6509   11.4321   -5.3421 O   0  0  0  0  0  0  0  0  0  0  0  0
   -0.9390   10.0652   -5.1771 C   0  0  0  0  0  0  0  0  0  0  0  0
   -1.6391    9.7506   -3.8894 C   0  0  0  0  0  0  0  0  0  0  0  0
   -2.3576    8.5008   -4.0674 N   0  0  0  0  0  0  0  0  0  0  0  0
   -3.0279    8.0700   -2.9375 N   0  0  0  0  0  0  0  0  0  0  0  0
   -4.3915    7.9942   -2.9206 C   0  0  0  0  0  0  0  0  0  0  0  0
   -5.1089    8.3357   -4.1993 C   0  0  0  0  0  0  0  0  0  0  0  0
   -6.3074    7.5484   -4.3806 N   0  0  0  0  0  0  0  0  0  0  0  0
   -6.4146    6.5813   -5.2980 C   0  0  0  0  0  0  0  0  0  0  0  0
   -7.7956    6.0219   -5.4235 C   0  0  0  0  0  0  0  0  0  0  0  0
   -7.8958    4.5004   -5.0867 C   0  0  0  0  0  0  0  0  0  0  0  0
   -9.3155    4.0045   -5.3080 C   0  0  0  0  0  0  0  0  0  0  0  0
   -7.4840    4.2584   -3.6243 C   0  0  0  0  0  0  0  0  0  0  0  0
   -8.2825    6.3128   -6.7511 N   0  0  0  0  0  0  0  0  0  0  0  0
   -9.1882    7.3157   -6.8905 C   0  0  0  0  0  0  0  0  0  0  0  0
   -9.9377    7.4906   -8.1890 C   0  0  0  0  0  0  0  0  0  0  0  0
  -11.1285    8.4333   -8.0218 C   0  0  0  0  0  0  0  0  0  0  0  0
  -11.9838    8.4327   -9.2387 C   0  0  0  0  0  0  0  0  0  0  0  0
  -12.2973    7.0451   -9.6279 N   0  0  0  0  0  0  0  0  0  0  0  0
  -13.5249    6.4775   -9.7019 C   0  0  0  0  0  0  0  0  0  0  0  0
  -14.6274    7.0945   -9.1269 C   0  0  0  0  0  0  0  0  0  0  0  0
  -15.6041    7.4807   -8.6864 C   0  0  0  0  0  0  0  0  0  0  0  0
  -16.7656    8.0132   -8.0147 C   0  0  0  0  0  0  0  0  0  0  0  0
  -16.3560    8.7238   -6.7888 N   0  0  0  0  0  0  0  0  0  0  0  0
  -15.5187    7.9145   -5.8843 C   0  0  0  0  0  0  0  0  0  0  0  0
  -15.7715   10.0582   -7.0327 C   0  0  0  0  0  0  0  0  0  0  0  0
  -17.7040    6.8616   -7.6294 C   0  0  0  0  0  0  0  0  0  0  0  0
  -17.4863    8.9643   -8.9708 C   0  0  0  0  0  0  0  0  0  0  0  0
  -13.6673    5.3767  -10.2338 O   0  0  0  0  0  0  0  0  0  0  0  0
  -11.1961    6.1739   -9.8533 C   0  0  0  0  0  0  0  0  0  0  0  0
  -10.4890    6.1225   -8.5557 C   0  0  0  0  0  0  0  0  0  0  0  0
   -9.4423    8.0716   -5.9373 O   0  0  0  0  0  0  0  0  0  0  0  0
   -7.7153    5.5009   -7.8748 C   0  0  0  0  0  0  0  0  0  0  0  0
   -5.4790    6.2207   -6.0107 O   0  0  0  0  0  0  0  0  0  0  0  0
   -5.5184    9.8398   -4.1298 C   0  0  0  0  0  0  0  0  0  0  0  0
   -5.9995   10.3501   -5.4815 C   0  0  0  0  0  0  0  0  0  0  0  0
   -4.7883   10.5841   -6.3633 C   0  0  0  0  0  0  0  0  0  0  0  0
   -5.2126   11.2139   -7.6369 N   0  0  0  0  0  0  0  0  0  0  0  0
   -6.0312   12.4693   -7.3651 C   0  0  0  0  0  0  0  0  0  0  0  0
   -7.2152   12.1308   -6.5115 C   0  0  0  0  0  0  0  0  0  0  0  0
   -6.7469   11.5426   -5.2800 O   0  0  0  0  0  0  0  0  0  0  0  0
   -5.0256    7.7395   -1.9235 O   0  0  0  0  0  0  0  0  0  0  0  0
   -2.1794    7.8346   -1.7693 C   0  0  0  0  0  0  0  0  0  0  0  0
   -1.3821    9.1383   -1.4756 C   0  0  0  0  0  0  0  0  0  0  0  0
   -0.6568    9.6090   -2.7241 C   0  0  0  0  0  0  0  0  0  0  0  0
   -0.7030    9.1159   -5.9699 O   0  0  0  0  0  0  0  0  0  0  0  0
   -2.0297   12.2386   -9.1515 C   0  0  0  0  0  0  0  0  0  0  0  0
   -1.9843   11.4942  -10.3175 C   0  0  0  0  0  0  0  0  0  0  0  0
   -3.0568   10.5941  -10.6026 C   0  0  0  0  0  0  0  0  0  0  0  0
   -4.1055   10.5057   -9.6923 C   0  0  0  0  0  0  0  0  0  0  0  0
   -4.1283   11.3033   -8.5263 C   0  0  0  0  0  0  0  0  0  0  0  0
   -3.0484   12.1550   -8.2720 C   0  0  0  0  0  0  0  0  0  0  0  0
   -9.0583    7.9759   -9.1560 F   0  0  0  0  0  0  0  0  0  0  0  0
  1  2  1  0  0  0  0
  2  3  1  0  0  0  0
  2  5  1  0  0  0  0
  3  4  1  0  0  0  0
  5  6  4  0  0  0  0
  5 10  4  0  0  0  0
  6  7  4  0  0  0  0
  7  8  4  0  0  0  0
  8  9  4  0  0  0  0
  9 10  4  0  0  0  0
 10 11  1  0  0  0  0
 11 12  4  0  0  0  0
 11 15  4  0  0  0  0
 12 13  1  0  0  0  0
 12 68  4  0  0  0  0
 13 14  1  0  0  0  0
 15 16  1  0  0  0  0
 15 67  4  0  0  0  0
 16 17  1  0  0  0  0
 17 18  1  0  0  0  0
 17 19  1  0  0  0  0
 17 20  1  0  0  0  0
 20 21  1  0  0  0  0
 21 22  1  0  0  0  0
 22 23  1  0  0  0  0
 22 66  2  0  0  0  0
 23 24  1  0  0  0  0
 23 65  1  0  0  0  0
 24 25  1  0  0  0  0
 25 26  1  0  0  0  0
 25 63  1  0  0  0  0
 26 27  1  0  0  0  0
 26 62  2  0  0  0  0
 27 28  1  0  0  0  0
 27 55  1  0  0  0  0
 28 29  1  0  0  0  0
 29 30  1  0  0  0  0
 29 54  2  0  0  0  0
 30 31  1  0  0  0  0
 30 34  1  0  0  0  0
 31 32  1  0  0  0  0
 31 33  1  0  0  0  0
 34 35  1  0  0  0  0
 34 53  1  0  0  0  0
 35 36  1  0  0  0  0
 35 52  2  0  0  0  0
 36 37  1  0  0  0  0
 36 51  1  0  0  0  0
 36 73  1  0  0  0  0
 37 38  1  0  0  0  0
 38 39  1  0  0  0  0
 39 40  1  0  0  0  0
 39 50  1  0  0  0  0
 40 41  1  0  0  0  0
 40 49  2  0  0  0  0
 41 42  1  0  0  0  0
 42 43  1  0  0  0  0
 43 44  1  0  0  0  0
 43 47  1  0  0  0  0
 43 48  1  0  0  0  0
 44 45  1  0  0  0  0
 44 46  1  0  0  0  0
 50 51  1  0  0  0  0
 55 56  1  0  0  0  0
 56 57  1  0  0  0  0
 56 61  1  0  0  0  0
 57 58  1  0  0  0  0
 58 59  1  0  0  0  0
 58 71  1  0  0  0  0
 59 60  1  0  0  0  0
 60 61  1  0  0  0  0
 63 64  1  0  0  0  0
 64 65  1  0  0  0  0
 67 68  4  0  0  0  0
 67 72  4  0  0  0  0
 68 69  4  0  0  0  0
 69 70  4  0  0  0  0
 70 71  4  0  0  0  0
 71 72  4  0  0  0  0
M  END
$$$$
