mol_ETKDG4_101
  PyMOL3.1          3D                             0

 73 79  0  0  0  0  0  0  0  0999 V2000
   -0.0089   16.3119  -11.4967 C   0  0  0  0  0  0  0  0  0  0  0  0
   -0.2149   14.8273  -11.3723 C   0  0  0  0  0  0  0  0  0  0  0  0
   -0.8032   14.2677  -12.5114 O   0  0  0  0  0  0  0  0  0  0  0  0
   -2.2225   14.2354  -12.5485 C   0  0  0  0  0  0  0  0  0  0  0  0
    1.0383   14.0867  -11.1067 C   0  0  0  0  0  0  0  0  0  0  0  0
    2.1952   14.6208  -11.4621 N   0  0  0  0  0  0  0  0  0  0  0  0
    3.3457   13.9551  -11.2347 C   0  0  0  0  0  0  0  0  0  0  0  0
    3.3522   12.7200  -10.6161 C   0  0  0  0  0  0  0  0  0  0  0  0
    2.1637   12.1730  -10.2589 C   0  0  0  0  0  0  0  0  0  0  0  0
    1.0118   12.8436  -10.5281 C   0  0  0  0  0  0  0  0  0  0  0  0
   -0.2337   12.2653  -10.1392 C   0  0  0  0  0  0  0  0  0  0  0  0
   -0.8954   11.2949  -10.8315 N   0  0  0  0  0  0  0  0  0  0  0  0
   -0.4803   10.6365  -12.0770 C   0  0  0  0  0  0  0  0  0  0  0  0
    0.0770    9.2381  -11.7866 C   0  0  0  0  0  0  0  0  0  0  0  0
   -0.9892   12.6527   -9.0437 C   0  0  0  0  0  0  0  0  0  0  0  0
   -0.7377   13.7027   -8.0089 C   0  0  0  0  0  0  0  0  0  0  0  0
   -0.0134   13.2286   -6.7224 C   0  0  0  0  0  0  0  0  0  0  0  0
   -0.5912   13.9762   -5.5259 C   0  0  0  0  0  0  0  0  0  0  0  0
    1.4909   13.5486   -6.8120 C   0  0  0  0  0  0  0  0  0  0  0  0
   -0.0869   11.8217   -6.5018 C   0  0  0  0  0  0  0  0  0  0  0  0
   -0.7478   11.3249   -5.3077 O   0  0  0  0  0  0  0  0  0  0  0  0
   -1.0086    9.9599   -5.1064 C   0  0  0  0  0  0  0  0  0  0  0  0
   -1.7180    9.6718   -3.8348 C   0  0  0  0  0  0  0  0  0  0  0  0
   -2.4342    8.4244   -4.0089 N   0  0  0  0  0  0  0  0  0  0  0  0
   -3.1093    8.0122   -2.8845 N   0  0  0  0  0  0  0  0  0  0  0  0
   -4.4670    7.9362   -2.8761 C   0  0  0  0  0  0  0  0  0  0  0  0
   -5.1846    8.2275   -4.1584 C   0  0  0  0  0  0  0  0  0  0  0  0
   -6.3586    7.4118   -4.3313 N   0  0  0  0  0  0  0  0  0  0  0  0
   -6.4489    6.4257   -5.2370 C   0  0  0  0  0  0  0  0  0  0  0  0
   -7.8056    5.8283   -5.3427 C   0  0  0  0  0  0  0  0  0  0  0  0
   -7.8678    4.3246   -4.9544 C   0  0  0  0  0  0  0  0  0  0  0  0
   -9.2744    3.7845   -5.1722 C   0  0  0  0  0  0  0  0  0  0  0  0
   -7.4842    4.1535   -3.4790 C   0  0  0  0  0  0  0  0  0  0  0  0
   -8.3124    6.0417   -6.6687 N   0  0  0  0  0  0  0  0  0  0  0  0
   -9.2379    7.0062   -6.8268 C   0  0  0  0  0  0  0  0  0  0  0  0
  -10.0261    7.0894   -8.1046 C   0  0  0  0  0  0  0  0  0  0  0  0
  -11.1026    8.1592   -7.9848 C   0  0  0  0  0  0  0  0  0  0  0  0
  -12.0397    8.0811   -9.1276 C   0  0  0  0  0  0  0  0  0  0  0  0
  -12.5440    6.7128   -9.1980 N   0  0  0  0  0  0  0  0  0  0  0  0
  -13.7915    6.3328   -8.8529 C   0  0  0  0  0  0  0  0  0  0  0  0
  -14.6310    7.2751   -8.2529 C   0  0  0  0  0  0  0  0  0  0  0  0
  -15.3802    7.9969   -7.7685 C   0  0  0  0  0  0  0  0  0  0  0  0
  -16.2279    8.9548   -7.1076 C   0  0  0  0  0  0  0  0  0  0  0  0
  -15.4071    9.9802   -6.4387 N   0  0  0  0  0  0  0  0  0  0  0  0
  -14.4924    9.4490   -5.4144 C   0  0  0  0  0  0  0  0  0  0  0  0
  -14.7227   10.9027   -7.3485 C   0  0  0  0  0  0  0  0  0  0  0  0
  -17.0780    8.2458   -6.0612 C   0  0  0  0  0  0  0  0  0  0  0  0
  -17.1178    9.6167   -8.1635 C   0  0  0  0  0  0  0  0  0  0  0  0
  -14.1715    5.1825   -9.0184 O   0  0  0  0  0  0  0  0  0  0  0  0
  -11.5774    5.6963   -9.4560 C   0  0  0  0  0  0  0  0  0  0  0  0
  -10.6992    5.7272   -8.2501 C   0  0  0  0  0  0  0  0  0  0  0  0
   -9.4889    7.7940   -5.9039 O   0  0  0  0  0  0  0  0  0  0  0  0
   -7.7636    5.1855   -7.7619 C   0  0  0  0  0  0  0  0  0  0  0  0
   -5.5078    6.0902   -5.9428 O   0  0  0  0  0  0  0  0  0  0  0  0
   -5.6290    9.7169   -4.1123 C   0  0  0  0  0  0  0  0  0  0  0  0
   -6.1093   10.1758   -5.4655 C   0  0  0  0  0  0  0  0  0  0  0  0
   -4.9102   10.3759   -6.3423 C   0  0  0  0  0  0  0  0  0  0  0  0
   -5.3166   10.9603   -7.6333 N   0  0  0  0  0  0  0  0  0  0  0  0
   -6.1279   12.2398   -7.3974 C   0  0  0  0  0  0  0  0  0  0  0  0
   -7.3062   11.9398   -6.5573 C   0  0  0  0  0  0  0  0  0  0  0  0
   -6.8559   11.3756   -5.3010 O   0  0  0  0  0  0  0  0  0  0  0  0
   -5.0962    7.7055   -1.8657 O   0  0  0  0  0  0  0  0  0  0  0  0
   -2.2694    7.7874   -1.7130 C   0  0  0  0  0  0  0  0  0  0  0  0
   -1.4788    9.0921   -1.4263 C   0  0  0  0  0  0  0  0  0  0  0  0
   -0.7403    9.5421   -2.6681 C   0  0  0  0  0  0  0  0  0  0  0  0
   -0.7349    8.9809   -5.8521 O   0  0  0  0  0  0  0  0  0  0  0  0
   -2.1015   11.8648   -9.0945 C   0  0  0  0  0  0  0  0  0  0  0  0
   -2.0215   11.0228  -10.1990 C   0  0  0  0  0  0  0  0  0  0  0  0
   -3.0773   10.1079  -10.4486 C   0  0  0  0  0  0  0  0  0  0  0  0
   -4.1495   10.0892   -9.5754 C   0  0  0  0  0  0  0  0  0  0  0  0
   -4.2106   10.9811   -8.4864 C   0  0  0  0  0  0  0  0  0  0  0  0
   -3.1355   11.8529   -8.2605 C   0  0  0  0  0  0  0  0  0  0  0  0
   -9.1906    7.3733   -9.1773 F   0  0  0  0  0  0  0  0  0  0  0  0
  1  2  1  0  0  0  0
  2  3  1  0  0  0  0
  2  5  1  0  0  0  0
  3  4  1  0  0  0  0
  5  6  4  0  0  0  0
  5 10  4  0  0  0  0
  6  7  4  0  0  0  0
  7  8  4  0  0  0  0
  8  9  4  0  0  0  0
  9 10  4  0  0  0  0
 10 11  1  0  0  0  0
 11 12  4  0  0  0  0
 11 15  4  0  0  0  0
 12 13  1  0  0  0  0
 12 68  4  0  0  0  0
 13 14  1  0  0  0  0
 15 16  1  0  0  0  0
 15 67  4  0  0  0  0
 16 17  1  0  0  0  0
 17 18  1  0  0  0  0
 17 19  1  0  0  0  0
 17 20  1  0  0  0  0
 20 21  1  0  0  0  0
 21 22  1  0  0  0  0
 22 23  1  0  0  0  0
 22 66  2  0  0  0  0
 23 24  1  0  0  0  0
 23 65  1  0  0  0  0
 24 25  1  0  0  0  0
 25 26  1  0  0  0  0
 25 63  1  0  0  0  0
 26 27  1  0  0  0  0
 26 62  2  0  0  0  0
 27 28  1  0  0  0  0
 27 55  1  0  0  0  0
 28 29  1  0  0  0  0
 29 30  1  0  0  0  0
 29 54  2  0  0  0  0
 30 31  1  0  0  0  0
 30 34  1  0  0  0  0
 31 32  1  0  0  0  0
 31 33  1  0  0  0  0
 34 35  1  0  0  0  0
 34 53  1  0  0  0  0
 35 36  1  0  0  0  0
 35 52  2  0  0  0  0
 36 37  1  0  0  0  0
 36 51  1  0  0  0  0
 36 73  1  0  0  0  0
 37 38  1  0  0  0  0
 38 39  1  0  0  0  0
 39 40  1  0  0  0  0
 39 50  1  0  0  0  0
 40 41  1  0  0  0  0
 40 49  2  0  0  0  0
 41 42  1  0  0  0  0
 42 43  1  0  0  0  0
 43 44  1  0  0  0  0
 43 47  1  0  0  0  0
 43 48  1  0  0  0  0
 44 45  1  0  0  0  0
 44 46  1  0  0  0  0
 50 51  1  0  0  0  0
 55 56  1  0  0  0  0
 56 57  1  0  0  0  0
 56 61  1  0  0  0  0
 57 58  1  0  0  0  0
 58 59  1  0  0  0  0
 58 71  1  0  0  0  0
 59 60  1  0  0  0  0
 60 61  1  0  0  0  0
 63 64  1  0  0  0  0
 64 65  1  0  0  0  0
 67 68  4  0  0  0  0
 67 72  4  0  0  0  0
 68 69  4  0  0  0  0
 69 70  4  0  0  0  0
 70 71  4  0  0  0  0
 71 72  4  0  0  0  0
M  END
$$$$
