mol_ETKDG2_67
  PyMOL3.1          3D                             0

 73 79  0  0  0  0  0  0  0  0999 V2000
   -0.1942   16.4380  -11.5464 C   0  0  0  0  0  0  0  0  0  0  0  0
   -0.2884   14.9347  -11.4843 C   0  0  0  0  0  0  0  0  0  0  0  0
   -0.6966   14.3591  -12.7116 O   0  0  0  0  0  0  0  0  0  0  0  0
   -2.0974   14.2959  -12.9447 C   0  0  0  0  0  0  0  0  0  0  0  0
    0.9944   14.2993  -11.1180 C   0  0  0  0  0  0  0  0  0  0  0  0
    2.1338   14.8920  -11.4484 N   0  0  0  0  0  0  0  0  0  0  0  0
    3.3131   14.3254  -11.1575 C   0  0  0  0  0  0  0  0  0  0  0  0
    3.3758   13.1046  -10.4842 C   0  0  0  0  0  0  0  0  0  0  0  0
    2.2136   12.4932  -10.1414 C   0  0  0  0  0  0  0  0  0  0  0  0
    1.0276   13.0799  -10.4756 C   0  0  0  0  0  0  0  0  0  0  0  0
   -0.2023   12.4421  -10.1007 C   0  0  0  0  0  0  0  0  0  0  0  0
   -0.8078   11.4548  -10.8167 N   0  0  0  0  0  0  0  0  0  0  0  0
   -0.3324   10.8130  -12.0477 C   0  0  0  0  0  0  0  0  0  0  0  0
    0.2809    9.4489  -11.7157 C   0  0  0  0  0  0  0  0  0  0  0  0
   -0.9976   12.7869   -9.0104 C   0  0  0  0  0  0  0  0  0  0  0  0
   -0.7993   13.8167   -7.9445 C   0  0  0  0  0  0  0  0  0  0  0  0
   -0.0374   13.3294   -6.6747 C   0  0  0  0  0  0  0  0  0  0  0  0
   -0.6243   14.0437   -5.4520 C   0  0  0  0  0  0  0  0  0  0  0  0
    1.4617   13.7057   -6.7758 C   0  0  0  0  0  0  0  0  0  0  0  0
   -0.0526   11.9169   -6.4701 C   0  0  0  0  0  0  0  0  0  0  0  0
   -0.6994   11.3869   -5.2745 O   0  0  0  0  0  0  0  0  0  0  0  0
   -0.9723   10.0175   -5.1106 C   0  0  0  0  0  0  0  0  0  0  0  0
   -1.6867    9.7076   -3.8408 C   0  0  0  0  0  0  0  0  0  0  0  0
   -2.3967    8.4545   -4.0293 N   0  0  0  0  0  0  0  0  0  0  0  0
   -3.0679    8.0230   -2.9141 N   0  0  0  0  0  0  0  0  0  0  0  0
   -4.4307    7.9201   -2.9104 C   0  0  0  0  0  0  0  0  0  0  0  0
   -5.1392    8.2243   -4.2036 C   0  0  0  0  0  0  0  0  0  0  0  0
   -6.3203    7.4005   -4.3863 N   0  0  0  0  0  0  0  0  0  0  0  0
   -6.4143    6.4330   -5.2984 C   0  0  0  0  0  0  0  0  0  0  0  0
   -7.7944    5.8639   -5.4807 C   0  0  0  0  0  0  0  0  0  0  0  0
   -7.9170    4.3642   -5.1116 C   0  0  0  0  0  0  0  0  0  0  0  0
   -9.3432    3.8867   -5.3589 C   0  0  0  0  0  0  0  0  0  0  0  0
   -7.5438    4.1579   -3.6331 C   0  0  0  0  0  0  0  0  0  0  0  0
   -8.1737    6.1189   -6.8535 N   0  0  0  0  0  0  0  0  0  0  0  0
   -8.9526    7.2048   -7.1165 C   0  0  0  0  0  0  0  0  0  0  0  0
   -9.3941    7.4787   -8.5357 C   0  0  0  0  0  0  0  0  0  0  0  0
  -10.6536    8.3210   -8.5997 C   0  0  0  0  0  0  0  0  0  0  0  0
  -11.0134    8.4931  -10.0111 C   0  0  0  0  0  0  0  0  0  0  0  0
   -9.8867    9.0650  -10.7611 N   0  0  0  0  0  0  0  0  0  0  0  0
  -10.0257   10.1539  -11.5302 C   0  0  0  0  0  0  0  0  0  0  0  0
  -11.2719   10.7487  -11.5359 C   0  0  0  0  0  0  0  0  0  0  0  0
  -12.2793   11.2899  -11.6214 C   0  0  0  0  0  0  0  0  0  0  0  0
  -13.5921   11.8801  -11.5583 C   0  0  0  0  0  0  0  0  0  0  0  0
  -13.4871   13.2149  -10.9241 N   0  0  0  0  0  0  0  0  0  0  0  0
  -13.0277   13.1620   -9.5150 C   0  0  0  0  0  0  0  0  0  0  0  0
  -12.6951   14.1800  -11.7189 C   0  0  0  0  0  0  0  0  0  0  0  0
  -14.5328   10.9868  -10.7262 C   0  0  0  0  0  0  0  0  0  0  0  0
  -14.1239   11.9943  -12.9847 C   0  0  0  0  0  0  0  0  0  0  0  0
   -9.1013   10.5885  -12.1909 O   0  0  0  0  0  0  0  0  0  0  0  0
   -8.5919    8.4120  -10.6718 C   0  0  0  0  0  0  0  0  0  0  0  0
   -8.2566    8.2220   -9.2313 C   0  0  0  0  0  0  0  0  0  0  0  0
   -9.3150    7.9539   -6.2028 O   0  0  0  0  0  0  0  0  0  0  0  0
   -7.6068    5.2167   -7.8878 C   0  0  0  0  0  0  0  0  0  0  0  0
   -5.4559    6.0890   -5.9894 O   0  0  0  0  0  0  0  0  0  0  0  0
   -5.5989    9.7038   -4.1690 C   0  0  0  0  0  0  0  0  0  0  0  0
   -6.0924   10.1307   -5.5425 C   0  0  0  0  0  0  0  0  0  0  0  0
   -4.8893   10.3730   -6.4073 C   0  0  0  0  0  0  0  0  0  0  0  0
   -5.3055   10.9131   -7.7180 N   0  0  0  0  0  0  0  0  0  0  0  0
   -6.1837   12.1515   -7.5263 C   0  0  0  0  0  0  0  0  0  0  0  0
   -7.3743   11.7983   -6.6782 C   0  0  0  0  0  0  0  0  0  0  0  0
   -6.9016   11.3003   -5.4068 O   0  0  0  0  0  0  0  0  0  0  0  0
   -5.0682    7.6640   -1.9162 O   0  0  0  0  0  0  0  0  0  0  0  0
   -2.2381    7.7959   -1.7344 C   0  0  0  0  0  0  0  0  0  0  0  0
   -1.4595    9.1028   -1.4297 C   0  0  0  0  0  0  0  0  0  0  0  0
   -0.7134    9.5685   -2.6677 C   0  0  0  0  0  0  0  0  0  0  0  0
   -0.7124    9.0650   -5.8889 O   0  0  0  0  0  0  0  0  0  0  0  0
   -2.0832   11.9565   -9.0953 C   0  0  0  0  0  0  0  0  0  0  0  0
   -1.9449   11.1340  -10.2071 C   0  0  0  0  0  0  0  0  0  0  0  0
   -2.9615   10.1813  -10.4958 C   0  0  0  0  0  0  0  0  0  0  0  0
   -4.0567   10.1151   -9.6500 C   0  0  0  0  0  0  0  0  0  0  0  0
   -4.1841   10.9935   -8.5431 C   0  0  0  0  0  0  0  0  0  0  0  0
   -3.1517   11.8969   -8.2800 C   0  0  0  0  0  0  0  0  0  0  0  0
   -9.6729    6.2997   -9.1881 F   0  0  0  0  0  0  0  0  0  0  0  0
  1  2  1  0  0  0  0
  2  3  1  0  0  0  0
  2  5  1  0  0  0  0
  3  4  1  0  0  0  0
  5  6  4  0  0  0  0
  5 10  4  0  0  0  0
  6  7  4  0  0  0  0
  7  8  4  0  0  0  0
  8  9  4  0  0  0  0
  9 10  4  0  0  0  0
 10 11  1  0  0  0  0
 11 12  4  0  0  0  0
 11 15  4  0  0  0  0
 12 13  1  0  0  0  0
 12 68  4  0  0  0  0
 13 14  1  0  0  0  0
 15 16  1  0  0  0  0
 15 67  4  0  0  0  0
 16 17  1  0  0  0  0
 17 18  1  0  0  0  0
 17 19  1  0  0  0  0
 17 20  1  0  0  0  0
 20 21  1  0  0  0  0
 21 22  1  0  0  0  0
 22 23  1  0  0  0  0
 22 66  2  0  0  0  0
 23 24  1  0  0  0  0
 23 65  1  0  0  0  0
 24 25  1  0  0  0  0
 25 26  1  0  0  0  0
 25 63  1  0  0  0  0
 26 27  1  0  0  0  0
 26 62  2  0  0  0  0
 27 28  1  0  0  0  0
 27 55  1  0  0  0  0
 28 29  1  0  0  0  0
 29 30  1  0  0  0  0
 29 54  2  0  0  0  0
 30 31  1  0  0  0  0
 30 34  1  0  0  0  0
 31 32  1  0  0  0  0
 31 33  1  0  0  0  0
 34 35  1  0  0  0  0
 34 53  1  0  0  0  0
 35 36  1  0  0  0  0
 35 52  2  0  0  0  0
 36 37  1  0  0  0  0
 36 51  1  0  0  0  0
 36 73  1  0  0  0  0
 37 38  1  0  0  0  0
 38 39  1  0  0  0  0
 39 40  1  0  0  0  0
 39 50  1  0  0  0  0
 40 41  1  0  0  0  0
 40 49  2  0  0  0  0
 41 42  1  0  0  0  0
 42 43  1  0  0  0  0
 43 44  1  0  0  0  0
 43 47  1  0  0  0  0
 43 48  1  0  0  0  0
 44 45  1  0  0  0  0
 44 46  1  0  0  0  0
 50 51  1  0  0  0  0
 55 56  1  0  0  0  0
 56 57  1  0  0  0  0
 56 61  1  0  0  0  0
 57 58  1  0  0  0  0
 58 59  1  0  0  0  0
 58 71  1  0  0  0  0
 59 60  1  0  0  0  0
 60 61  1  0  0  0  0
 63 64  1  0  0  0  0
 64 65  1  0  0  0  0
 67 68  4  0  0  0  0
 67 72  4  0  0  0  0
 68 69  4  0  0  0  0
 69 70  4  0  0  0  0
 70 71  4  0  0  0  0
 71 72  4  0  0  0  0
M  END
$$$$
