mol_ETKDG0_152
  PyMOL3.1          3D                             0

 73 79  0  0  0  0  0  0  0  0999 V2000
   -0.1407   16.5387  -11.5496 C   0  0  0  0  0  0  0  0  0  0  0  0
   -0.2655   15.0373  -11.4293 C   0  0  0  0  0  0  0  0  0  0  0  0
   -0.7247   14.4290  -12.5936 O   0  0  0  0  0  0  0  0  0  0  0  0
   -2.1374   14.3515  -12.7691 C   0  0  0  0  0  0  0  0  0  0  0  0
    1.0178   14.3890  -11.0719 C   0  0  0  0  0  0  0  0  0  0  0  0
    2.1515   14.9706  -11.4310 N   0  0  0  0  0  0  0  0  0  0  0  0
    3.3332   14.3904  -11.1480 C   0  0  0  0  0  0  0  0  0  0  0  0
    3.3971   13.1847  -10.4542 C   0  0  0  0  0  0  0  0  0  0  0  0
    2.2353   12.5910  -10.0848 C   0  0  0  0  0  0  0  0  0  0  0  0
    1.0479   13.1811  -10.4096 C   0  0  0  0  0  0  0  0  0  0  0  0
   -0.1714   12.5542  -10.0069 C   0  0  0  0  0  0  0  0  0  0  0  0
   -0.7842   11.5505  -10.6875 N   0  0  0  0  0  0  0  0  0  0  0  0
   -0.3210   10.8721  -11.9011 C   0  0  0  0  0  0  0  0  0  0  0  0
    0.3586    9.5433  -11.5320 C   0  0  0  0  0  0  0  0  0  0  0  0
   -0.9460   12.9173   -8.9128 C   0  0  0  0  0  0  0  0  0  0  0  0
   -0.7147   13.9500   -7.8506 C   0  0  0  0  0  0  0  0  0  0  0  0
    0.0057   13.4318   -6.5728 C   0  0  0  0  0  0  0  0  0  0  0  0
   -0.6025   14.1352   -5.3580 C   0  0  0  0  0  0  0  0  0  0  0  0
    1.5095   13.7602   -6.6354 C   0  0  0  0  0  0  0  0  0  0  0  0
   -0.0553   11.9978   -6.3767 C   0  0  0  0  0  0  0  0  0  0  0  0
   -0.7269   11.4562   -5.2094 O   0  0  0  0  0  0  0  0  0  0  0  0
   -1.0152   10.0870   -5.0564 C   0  0  0  0  0  0  0  0  0  0  0  0
   -1.7355    9.7732   -3.7926 C   0  0  0  0  0  0  0  0  0  0  0  0
   -2.4405    8.5088   -3.9753 N   0  0  0  0  0  0  0  0  0  0  0  0
   -3.1171    8.0836   -2.8592 N   0  0  0  0  0  0  0  0  0  0  0  0
   -4.4814    7.9880   -2.8523 C   0  0  0  0  0  0  0  0  0  0  0  0
   -5.1993    8.3055   -4.1357 C   0  0  0  0  0  0  0  0  0  0  0  0
   -6.3759    7.4855   -4.3429 N   0  0  0  0  0  0  0  0  0  0  0  0
   -6.4235    6.5178   -5.2530 C   0  0  0  0  0  0  0  0  0  0  0  0
   -7.7832    5.9149   -5.4139 C   0  0  0  0  0  0  0  0  0  0  0  0
   -7.8688    4.4026   -5.0258 C   0  0  0  0  0  0  0  0  0  0  0  0
   -9.2668    3.8671   -5.3095 C   0  0  0  0  0  0  0  0  0  0  0  0
   -7.5499    4.2143   -3.5373 C   0  0  0  0  0  0  0  0  0  0  0  0
   -8.2095    6.1191   -6.7711 N   0  0  0  0  0  0  0  0  0  0  0  0
   -9.1923    7.0284   -6.9921 C   0  0  0  0  0  0  0  0  0  0  0  0
   -9.8713    7.1105   -8.3326 C   0  0  0  0  0  0  0  0  0  0  0  0
  -11.2763    7.6841   -8.1435 C   0  0  0  0  0  0  0  0  0  0  0  0
  -12.0984    7.5432   -9.3756 C   0  0  0  0  0  0  0  0  0  0  0  0
  -12.0227    6.1611   -9.8504 N   0  0  0  0  0  0  0  0  0  0  0  0
  -13.0299    5.2408   -9.8776 C   0  0  0  0  0  0  0  0  0  0  0  0
  -14.2738    5.5680   -9.3734 C   0  0  0  0  0  0  0  0  0  0  0  0
  -15.3405    5.7292   -8.9937 C   0  0  0  0  0  0  0  0  0  0  0  0
  -16.6385    6.0103   -8.4247 C   0  0  0  0  0  0  0  0  0  0  0  0
  -16.5013    6.3050   -6.9873 N   0  0  0  0  0  0  0  0  0  0  0  0
  -15.8244    5.2423   -6.2236 C   0  0  0  0  0  0  0  0  0  0  0  0
  -15.9382    7.6346   -6.6961 C   0  0  0  0  0  0  0  0  0  0  0  0
  -17.5407    4.7889   -8.5901 C   0  0  0  0  0  0  0  0  0  0  0  0
  -17.2243    7.2168   -9.1653 C   0  0  0  0  0  0  0  0  0  0  0  0
  -12.8400    4.1106  -10.3215 O   0  0  0  0  0  0  0  0  0  0  0  0
  -10.7404    5.6885  -10.1688 C   0  0  0  0  0  0  0  0  0  0  0  0
  -10.0440    5.7018   -8.8608 C   0  0  0  0  0  0  0  0  0  0  0  0
   -9.5684    7.7873   -6.0809 O   0  0  0  0  0  0  0  0  0  0  0  0
   -7.4967    5.3397   -7.8156 C   0  0  0  0  0  0  0  0  0  0  0  0
   -5.4618    6.1902   -5.9322 O   0  0  0  0  0  0  0  0  0  0  0  0
   -5.6548    9.7963   -4.0586 C   0  0  0  0  0  0  0  0  0  0  0  0
   -6.0975   10.2931   -5.4111 C   0  0  0  0  0  0  0  0  0  0  0  0
   -4.8725   10.5078   -6.2586 C   0  0  0  0  0  0  0  0  0  0  0  0
   -5.2485   11.1291   -7.5362 N   0  0  0  0  0  0  0  0  0  0  0  0
   -6.0690   12.4091   -7.2755 C   0  0  0  0  0  0  0  0  0  0  0  0
   -7.2644   12.0873   -6.4643 C   0  0  0  0  0  0  0  0  0  0  0  0
   -6.8419   11.4979   -5.2301 O   0  0  0  0  0  0  0  0  0  0  0  0
   -5.1161    7.7390   -1.8524 O   0  0  0  0  0  0  0  0  0  0  0  0
   -2.2775    7.8635   -1.6762 C   0  0  0  0  0  0  0  0  0  0  0  0
   -1.5252    9.1667   -1.3746 C   0  0  0  0  0  0  0  0  0  0  0  0
   -0.7750    9.6521   -2.6028 C   0  0  0  0  0  0  0  0  0  0  0  0
   -0.7527    9.1414   -5.8457 O   0  0  0  0  0  0  0  0  0  0  0  0
   -2.0323   12.0922   -8.9696 C   0  0  0  0  0  0  0  0  0  0  0  0
   -1.9107   11.2455  -10.0597 C   0  0  0  0  0  0  0  0  0  0  0  0
   -2.9228   10.2901  -10.3085 C   0  0  0  0  0  0  0  0  0  0  0  0
   -4.0156   10.2525   -9.4406 C   0  0  0  0  0  0  0  0  0  0  0  0
   -4.1239   11.1620   -8.3724 C   0  0  0  0  0  0  0  0  0  0  0  0
   -3.0776   12.0598   -8.1501 C   0  0  0  0  0  0  0  0  0  0  0  0
   -9.1011    7.8760   -9.1944 F   0  0  0  0  0  0  0  0  0  0  0  0
  1  2  1  0  0  0  0
  2  3  1  0  0  0  0
  2  5  1  0  0  0  0
  3  4  1  0  0  0  0
  5  6  4  0  0  0  0
  5 10  4  0  0  0  0
  6  7  4  0  0  0  0
  7  8  4  0  0  0  0
  8  9  4  0  0  0  0
  9 10  4  0  0  0  0
 10 11  1  0  0  0  0
 11 12  4  0  0  0  0
 11 15  4  0  0  0  0
 12 13  1  0  0  0  0
 12 68  4  0  0  0  0
 13 14  1  0  0  0  0
 15 16  1  0  0  0  0
 15 67  4  0  0  0  0
 16 17  1  0  0  0  0
 17 18  1  0  0  0  0
 17 19  1  0  0  0  0
 17 20  1  0  0  0  0
 20 21  1  0  0  0  0
 21 22  1  0  0  0  0
 22 23  1  0  0  0  0
 22 66  2  0  0  0  0
 23 24  1  0  0  0  0
 23 65  1  0  0  0  0
 24 25  1  0  0  0  0
 25 26  1  0  0  0  0
 25 63  1  0  0  0  0
 26 27  1  0  0  0  0
 26 62  2  0  0  0  0
 27 28  1  0  0  0  0
 27 55  1  0  0  0  0
 28 29  1  0  0  0  0
 29 30  1  0  0  0  0
 29 54  2  0  0  0  0
 30 31  1  0  0  0  0
 30 34  1  0  0  0  0
 31 32  1  0  0  0  0
 31 33  1  0  0  0  0
 34 35  1  0  0  0  0
 34 53  1  0  0  0  0
 35 36  1  0  0  0  0
 35 52  2  0  0  0  0
 36 37  1  0  0  0  0
 36 51  1  0  0  0  0
 36 73  1  0  0  0  0
 37 38  1  0  0  0  0
 38 39  1  0  0  0  0
 39 40  1  0  0  0  0
 39 50  1  0  0  0  0
 40 41  1  0  0  0  0
 40 49  2  0  0  0  0
 41 42  1  0  0  0  0
 42 43  1  0  0  0  0
 43 44  1  0  0  0  0
 43 47  1  0  0  0  0
 43 48  1  0  0  0  0
 44 45  1  0  0  0  0
 44 46  1  0  0  0  0
 50 51  1  0  0  0  0
 55 56  1  0  0  0  0
 56 57  1  0  0  0  0
 56 61  1  0  0  0  0
 57 58  1  0  0  0  0
 58 59  1  0  0  0  0
 58 71  1  0  0  0  0
 59 60  1  0  0  0  0
 60 61  1  0  0  0  0
 63 64  1  0  0  0  0
 64 65  1  0  0  0  0
 67 68  4  0  0  0  0
 67 72  4  0  0  0  0
 68 69  4  0  0  0  0
 69 70  4  0  0  0  0
 70 71  4  0  0  0  0
 71 72  4  0  0  0  0
M  END
$$$$
