mol_ETKDG0_163
  PyMOL3.1          3D                             0

 73 79  0  0  0  0  0  0  0  0999 V2000
   -0.2135   14.9637  -13.5288 C   0  0  0  0  0  0  0  0  0  0  0  0
   -0.3795   14.4190  -12.1280 C   0  0  0  0  0  0  0  0  0  0  0  0
   -0.9837   15.3304  -11.2803 O   0  0  0  0  0  0  0  0  0  0  0  0
   -2.4140   15.3970  -11.2885 C   0  0  0  0  0  0  0  0  0  0  0  0
    0.9141   14.0268  -11.5160 C   0  0  0  0  0  0  0  0  0  0  0  0
    2.0259   14.6194  -11.9248 N   0  0  0  0  0  0  0  0  0  0  0  0
    3.2159   14.2700  -11.4014 C   0  0  0  0  0  0  0  0  0  0  0  0
    3.3105   13.2737  -10.4381 C   0  0  0  0  0  0  0  0  0  0  0  0
    2.1715   12.6608  -10.0255 C   0  0  0  0  0  0  0  0  0  0  0  0
    0.9740   13.0435  -10.5601 C   0  0  0  0  0  0  0  0  0  0  0  0
   -0.2318   12.4337  -10.0961 C   0  0  0  0  0  0  0  0  0  0  0  0
   -0.8668   11.4251  -10.7371 N   0  0  0  0  0  0  0  0  0  0  0  0
   -0.4271   10.7144  -11.9495 C   0  0  0  0  0  0  0  0  0  0  0  0
    0.2485    9.3952  -11.5642 C   0  0  0  0  0  0  0  0  0  0  0  0
   -0.9723   12.8287   -8.9881 C   0  0  0  0  0  0  0  0  0  0  0  0
   -0.7088   13.8824   -7.9511 C   0  0  0  0  0  0  0  0  0  0  0  0
   -0.0321   13.3874   -6.6375 C   0  0  0  0  0  0  0  0  0  0  0  0
   -0.7140   14.0776   -5.4579 C   0  0  0  0  0  0  0  0  0  0  0  0
    1.4617   13.7649   -6.6341 C   0  0  0  0  0  0  0  0  0  0  0  0
   -0.0552   11.9576   -6.4330 C   0  0  0  0  0  0  0  0  0  0  0  0
   -0.7103   11.4200   -5.2470 O   0  0  0  0  0  0  0  0  0  0  0  0
   -0.9758   10.0466   -5.0813 C   0  0  0  0  0  0  0  0  0  0  0  0
   -1.6813    9.7304   -3.8076 C   0  0  0  0  0  0  0  0  0  0  0  0
   -2.4030    8.4779   -3.9926 N   0  0  0  0  0  0  0  0  0  0  0  0
   -3.0740    8.0548   -2.8701 N   0  0  0  0  0  0  0  0  0  0  0  0
   -4.4355    7.9798   -2.8520 C   0  0  0  0  0  0  0  0  0  0  0  0
   -5.1514    8.3202   -4.1268 C   0  0  0  0  0  0  0  0  0  0  0  0
   -6.3289    7.5081   -4.3311 N   0  0  0  0  0  0  0  0  0  0  0  0
   -6.3837    6.5321   -5.2282 C   0  0  0  0  0  0  0  0  0  0  0  0
   -7.7480    5.9518   -5.3927 C   0  0  0  0  0  0  0  0  0  0  0  0
   -7.8387    4.4409   -5.0213 C   0  0  0  0  0  0  0  0  0  0  0  0
   -9.2499    3.9238   -5.2915 C   0  0  0  0  0  0  0  0  0  0  0  0
   -7.5083    4.2461   -3.5363 C   0  0  0  0  0  0  0  0  0  0  0  0
   -8.1694    6.1736   -6.7467 N   0  0  0  0  0  0  0  0  0  0  0  0
   -9.1405    7.0860   -6.9571 C   0  0  0  0  0  0  0  0  0  0  0  0
   -9.7860    7.1723   -8.3098 C   0  0  0  0  0  0  0  0  0  0  0  0
  -11.0712    7.9847   -8.2522 C   0  0  0  0  0  0  0  0  0  0  0  0
  -11.7971    7.8863   -9.5478 C   0  0  0  0  0  0  0  0  0  0  0  0
  -11.9445    6.4681   -9.8992 N   0  0  0  0  0  0  0  0  0  0  0  0
  -13.1016    5.7775   -9.9339 C   0  0  0  0  0  0  0  0  0  0  0  0
  -14.2149    6.3759   -9.4176 C   0  0  0  0  0  0  0  0  0  0  0  0
  -15.1589    6.8176   -9.0034 C   0  0  0  0  0  0  0  0  0  0  0  0
  -16.2846    7.4564   -8.3641 C   0  0  0  0  0  0  0  0  0  0  0  0
  -15.7843    8.4664   -7.4056 N   0  0  0  0  0  0  0  0  0  0  0  0
  -14.9536    7.8884   -6.3231 C   0  0  0  0  0  0  0  0  0  0  0  0
  -15.1021    9.6171   -8.0432 C   0  0  0  0  0  0  0  0  0  0  0  0
  -17.0938    6.4043   -7.6059 C   0  0  0  0  0  0  0  0  0  0  0  0
  -17.1330    8.1349   -9.4459 C   0  0  0  0  0  0  0  0  0  0  0  0
  -13.1542    4.6294  -10.3621 O   0  0  0  0  0  0  0  0  0  0  0  0
  -10.7675    5.7165  -10.0476 C   0  0  0  0  0  0  0  0  0  0  0  0
  -10.1693    5.7582   -8.6896 C   0  0  0  0  0  0  0  0  0  0  0  0
   -9.5294    7.8282   -6.0411 O   0  0  0  0  0  0  0  0  0  0  0  0
   -7.4738    5.3971   -7.8042 C   0  0  0  0  0  0  0  0  0  0  0  0
   -5.4258    6.1866   -5.8967 O   0  0  0  0  0  0  0  0  0  0  0  0
   -5.6069    9.8071   -4.0365 C   0  0  0  0  0  0  0  0  0  0  0  0
   -6.0740   10.3025   -5.3842 C   0  0  0  0  0  0  0  0  0  0  0  0
   -4.8661   10.5262   -6.2389 C   0  0  0  0  0  0  0  0  0  0  0  0
   -5.2671   11.1052   -7.5265 N   0  0  0  0  0  0  0  0  0  0  0  0
   -6.0816   12.3906   -7.2831 C   0  0  0  0  0  0  0  0  0  0  0  0
   -7.2646   12.0815   -6.4432 C   0  0  0  0  0  0  0  0  0  0  0  0
   -6.8262   11.5015   -5.2053 O   0  0  0  0  0  0  0  0  0  0  0  0
   -5.0673    7.7272   -1.8496 O   0  0  0  0  0  0  0  0  0  0  0  0
   -2.2307    7.8157   -1.6952 C   0  0  0  0  0  0  0  0  0  0  0  0
   -1.4489    9.1015   -1.3998 C   0  0  0  0  0  0  0  0  0  0  0  0
   -0.7029    9.5754   -2.6376 C   0  0  0  0  0  0  0  0  0  0  0  0
   -0.7108    9.1020   -5.8645 O   0  0  0  0  0  0  0  0  0  0  0  0
   -2.0679   12.0126   -9.0071 C   0  0  0  0  0  0  0  0  0  0  0  0
   -1.9781   11.1442  -10.0853 C   0  0  0  0  0  0  0  0  0  0  0  0
   -3.0059   10.1993  -10.3082 C   0  0  0  0  0  0  0  0  0  0  0  0
   -4.0768   10.1881   -9.4273 C   0  0  0  0  0  0  0  0  0  0  0  0
   -4.1557   11.1131   -8.3737 C   0  0  0  0  0  0  0  0  0  0  0  0
   -3.0962   12.0029   -8.1686 C   0  0  0  0  0  0  0  0  0  0  0  0
   -8.8955    7.7298   -9.2143 F   0  0  0  0  0  0  0  0  0  0  0  0
  1  2  1  0  0  0  0
  2  3  1  0  0  0  0
  2  5  1  0  0  0  0
  3  4  1  0  0  0  0
  5  6  4  0  0  0  0
  5 10  4  0  0  0  0
  6  7  4  0  0  0  0
  7  8  4  0  0  0  0
  8  9  4  0  0  0  0
  9 10  4  0  0  0  0
 10 11  1  0  0  0  0
 11 12  4  0  0  0  0
 11 15  4  0  0  0  0
 12 13  1  0  0  0  0
 12 68  4  0  0  0  0
 13 14  1  0  0  0  0
 15 16  1  0  0  0  0
 15 67  4  0  0  0  0
 16 17  1  0  0  0  0
 17 18  1  0  0  0  0
 17 19  1  0  0  0  0
 17 20  1  0  0  0  0
 20 21  1  0  0  0  0
 21 22  1  0  0  0  0
 22 23  1  0  0  0  0
 22 66  2  0  0  0  0
 23 24  1  0  0  0  0
 23 65  1  0  0  0  0
 24 25  1  0  0  0  0
 25 26  1  0  0  0  0
 25 63  1  0  0  0  0
 26 27  1  0  0  0  0
 26 62  2  0  0  0  0
 27 28  1  0  0  0  0
 27 55  1  0  0  0  0
 28 29  1  0  0  0  0
 29 30  1  0  0  0  0
 29 54  2  0  0  0  0
 30 31  1  0  0  0  0
 30 34  1  0  0  0  0
 31 32  1  0  0  0  0
 31 33  1  0  0  0  0
 34 35  1  0  0  0  0
 34 53  1  0  0  0  0
 35 36  1  0  0  0  0
 35 52  2  0  0  0  0
 36 37  1  0  0  0  0
 36 51  1  0  0  0  0
 36 73  1  0  0  0  0
 37 38  1  0  0  0  0
 38 39  1  0  0  0  0
 39 40  1  0  0  0  0
 39 50  1  0  0  0  0
 40 41  1  0  0  0  0
 40 49  2  0  0  0  0
 41 42  1  0  0  0  0
 42 43  1  0  0  0  0
 43 44  1  0  0  0  0
 43 47  1  0  0  0  0
 43 48  1  0  0  0  0
 44 45  1  0  0  0  0
 44 46  1  0  0  0  0
 50 51  1  0  0  0  0
 55 56  1  0  0  0  0
 56 57  1  0  0  0  0
 56 61  1  0  0  0  0
 57 58  1  0  0  0  0
 58 59  1  0  0  0  0
 58 71  1  0  0  0  0
 59 60  1  0  0  0  0
 60 61  1  0  0  0  0
 63 64  1  0  0  0  0
 64 65  1  0  0  0  0
 67 68  4  0  0  0  0
 67 72  4  0  0  0  0
 68 69  4  0  0  0  0
 69 70  4  0  0  0  0
 70 71  4  0  0  0  0
 71 72  4  0  0  0  0
M  END
$$$$
