mol_ETKDG4_104
  PyMOL3.1          3D                             0

 73 79  0  0  0  0  0  0  0  0999 V2000
    0.0750   14.7998  -13.5231 C   0  0  0  0  0  0  0  0  0  0  0  0
   -0.1239   14.3244  -12.0995 C   0  0  0  0  0  0  0  0  0  0  0  0
   -0.7199   15.2983  -11.2954 O   0  0  0  0  0  0  0  0  0  0  0  0
   -2.1370   15.4200  -11.3195 C   0  0  0  0  0  0  0  0  0  0  0  0
    1.1474   13.9291  -11.4422 C   0  0  0  0  0  0  0  0  0  0  0  0
    2.2768   14.4924  -11.8373 N   0  0  0  0  0  0  0  0  0  0  0  0
    3.4451   14.1458  -11.2573 C   0  0  0  0  0  0  0  0  0  0  0  0
    3.4961   13.1827  -10.2658 C   0  0  0  0  0  0  0  0  0  0  0  0
    2.3339   12.5931   -9.8739 C   0  0  0  0  0  0  0  0  0  0  0  0
    1.1597   12.9745  -10.4531 C   0  0  0  0  0  0  0  0  0  0  0  0
   -0.0692   12.3778  -10.0190 C   0  0  0  0  0  0  0  0  0  0  0  0
   -0.6868   11.3602  -10.6784 N   0  0  0  0  0  0  0  0  0  0  0  0
   -0.1964   10.6334  -11.8621 C   0  0  0  0  0  0  0  0  0  0  0  0
    0.4916    9.3347  -11.4167 C   0  0  0  0  0  0  0  0  0  0  0  0
   -0.8567   12.7814   -8.9372 C   0  0  0  0  0  0  0  0  0  0  0  0
   -0.6495   13.8470   -7.9043 C   0  0  0  0  0  0  0  0  0  0  0  0
    0.0280   13.3835   -6.5775 C   0  0  0  0  0  0  0  0  0  0  0  0
   -0.6506   14.0857   -5.4002 C   0  0  0  0  0  0  0  0  0  0  0  0
    1.5205   13.7825   -6.5904 C   0  0  0  0  0  0  0  0  0  0  0  0
    0.0158   11.9628   -6.3593 C   0  0  0  0  0  0  0  0  0  0  0  0
   -0.6587   11.4197   -5.1880 O   0  0  0  0  0  0  0  0  0  0  0  0
   -0.9449   10.0505   -5.0454 C   0  0  0  0  0  0  0  0  0  0  0  0
   -1.6670    9.7230   -3.7820 C   0  0  0  0  0  0  0  0  0  0  0  0
   -2.3641    8.4597   -3.9761 N   0  0  0  0  0  0  0  0  0  0  0  0
   -3.0524    8.0244   -2.8634 N   0  0  0  0  0  0  0  0  0  0  0  0
   -4.4123    7.9172   -2.8730 C   0  0  0  0  0  0  0  0  0  0  0  0
   -5.1201    8.2273   -4.1595 C   0  0  0  0  0  0  0  0  0  0  0  0
   -6.2996    7.4230   -4.3701 N   0  0  0  0  0  0  0  0  0  0  0  0
   -6.3897    6.4640   -5.3151 C   0  0  0  0  0  0  0  0  0  0  0  0
   -7.7589    5.8890   -5.4576 C   0  0  0  0  0  0  0  0  0  0  0  0
   -7.8403    4.3753   -5.1048 C   0  0  0  0  0  0  0  0  0  0  0  0
   -9.2566    3.8591   -5.3450 C   0  0  0  0  0  0  0  0  0  0  0  0
   -7.4663    4.1683   -3.6292 C   0  0  0  0  0  0  0  0  0  0  0  0
   -8.2461    6.1595   -6.7907 N   0  0  0  0  0  0  0  0  0  0  0  0
   -9.0878    7.2162   -6.9483 C   0  0  0  0  0  0  0  0  0  0  0  0
   -9.8238    7.4015   -8.2487 C   0  0  0  0  0  0  0  0  0  0  0  0
  -10.6474    8.6863   -8.2517 C   0  0  0  0  0  0  0  0  0  0  0  0
  -11.4743    8.7445   -9.4869 C   0  0  0  0  0  0  0  0  0  0  0  0
  -12.2718    7.5139   -9.5669 N   0  0  0  0  0  0  0  0  0  0  0  0
  -13.6133    7.4612   -9.4635 C   0  0  0  0  0  0  0  0  0  0  0  0
  -14.3179    8.6325   -9.1936 C   0  0  0  0  0  0  0  0  0  0  0  0
  -15.0037    9.5143   -8.9785 C   0  0  0  0  0  0  0  0  0  0  0  0
  -15.7567   10.6636   -8.6259 C   0  0  0  0  0  0  0  0  0  0  0  0
  -15.5644   11.0029   -7.2275 N   0  0  0  0  0  0  0  0  0  0  0  0
  -14.4017   10.5213   -6.5431 C   0  0  0  0  0  0  0  0  0  0  0  0
  -16.2002   12.1437   -6.6921 C   0  0  0  0  0  0  0  0  0  0  0  0
  -17.2324   10.3461   -8.8445 C   0  0  0  0  0  0  0  0  0  0  0  0
  -15.3082   11.8406   -9.5190 C   0  0  0  0  0  0  0  0  0  0  0  0
  -14.2154    6.3966   -9.5738 O   0  0  0  0  0  0  0  0  0  0  0  0
  -11.5421    6.2789   -9.6382 C   0  0  0  0  0  0  0  0  0  0  0  0
  -10.7624    6.2062   -8.3656 C   0  0  0  0  0  0  0  0  0  0  0  0
   -9.2996    7.9947   -6.0080 O   0  0  0  0  0  0  0  0  0  0  0  0
   -7.7694    5.2757   -7.9001 C   0  0  0  0  0  0  0  0  0  0  0  0
   -5.4409    6.1287   -6.0163 O   0  0  0  0  0  0  0  0  0  0  0  0
   -5.5711    9.7208   -4.0806 C   0  0  0  0  0  0  0  0  0  0  0  0
   -6.0244   10.2067   -5.4373 C   0  0  0  0  0  0  0  0  0  0  0  0
   -4.8020   10.4571   -6.2726 C   0  0  0  0  0  0  0  0  0  0  0  0
   -5.1850   11.0079   -7.5810 N   0  0  0  0  0  0  0  0  0  0  0  0
   -6.0388   12.2690   -7.3855 C   0  0  0  0  0  0  0  0  0  0  0  0
   -7.2349   11.9390   -6.5608 C   0  0  0  0  0  0  0  0  0  0  0  0
   -6.8065   11.3954   -5.2878 O   0  0  0  0  0  0  0  0  0  0  0  0
   -5.0527    7.6520   -1.8766 O   0  0  0  0  0  0  0  0  0  0  0  0
   -2.2215    7.8025   -1.6811 C   0  0  0  0  0  0  0  0  0  0  0  0
   -1.4536    9.1187   -1.3742 C   0  0  0  0  0  0  0  0  0  0  0  0
   -0.7019    9.5938   -2.6051 C   0  0  0  0  0  0  0  0  0  0  0  0
   -0.6887    9.1042   -5.8416 O   0  0  0  0  0  0  0  0  0  0  0  0
   -1.9499   11.9622   -8.9840 C   0  0  0  0  0  0  0  0  0  0  0  0
   -1.8198   11.0833  -10.0609 C   0  0  0  0  0  0  0  0  0  0  0  0
   -2.8431   10.1315  -10.3081 C   0  0  0  0  0  0  0  0  0  0  0  0
   -3.9423   10.1123   -9.4631 C   0  0  0  0  0  0  0  0  0  0  0  0
   -4.0558   11.0407   -8.4037 C   0  0  0  0  0  0  0  0  0  0  0  0
   -3.0163   11.9501   -8.1698 C   0  0  0  0  0  0  0  0  0  0  0  0
   -8.9227    7.4571   -9.3110 F   0  0  0  0  0  0  0  0  0  0  0  0
  1  2  1  0  0  0  0
  2  3  1  0  0  0  0
  2  5  1  0  0  0  0
  3  4  1  0  0  0  0
  5  6  4  0  0  0  0
  5 10  4  0  0  0  0
  6  7  4  0  0  0  0
  7  8  4  0  0  0  0
  8  9  4  0  0  0  0
  9 10  4  0  0  0  0
 10 11  1  0  0  0  0
 11 12  4  0  0  0  0
 11 15  4  0  0  0  0
 12 13  1  0  0  0  0
 12 68  4  0  0  0  0
 13 14  1  0  0  0  0
 15 16  1  0  0  0  0
 15 67  4  0  0  0  0
 16 17  1  0  0  0  0
 17 18  1  0  0  0  0
 17 19  1  0  0  0  0
 17 20  1  0  0  0  0
 20 21  1  0  0  0  0
 21 22  1  0  0  0  0
 22 23  1  0  0  0  0
 22 66  2  0  0  0  0
 23 24  1  0  0  0  0
 23 65  1  0  0  0  0
 24 25  1  0  0  0  0
 25 26  1  0  0  0  0
 25 63  1  0  0  0  0
 26 27  1  0  0  0  0
 26 62  2  0  0  0  0
 27 28  1  0  0  0  0
 27 55  1  0  0  0  0
 28 29  1  0  0  0  0
 29 30  1  0  0  0  0
 29 54  2  0  0  0  0
 30 31  1  0  0  0  0
 30 34  1  0  0  0  0
 31 32  1  0  0  0  0
 31 33  1  0  0  0  0
 34 35  1  0  0  0  0
 34 53  1  0  0  0  0
 35 36  1  0  0  0  0
 35 52  2  0  0  0  0
 36 37  1  0  0  0  0
 36 51  1  0  0  0  0
 36 73  1  0  0  0  0
 37 38  1  0  0  0  0
 38 39  1  0  0  0  0
 39 40  1  0  0  0  0
 39 50  1  0  0  0  0
 40 41  1  0  0  0  0
 40 49  2  0  0  0  0
 41 42  1  0  0  0  0
 42 43  1  0  0  0  0
 43 44  1  0  0  0  0
 43 47  1  0  0  0  0
 43 48  1  0  0  0  0
 44 45  1  0  0  0  0
 44 46  1  0  0  0  0
 50 51  1  0  0  0  0
 55 56  1  0  0  0  0
 56 57  1  0  0  0  0
 56 61  1  0  0  0  0
 57 58  1  0  0  0  0
 58 59  1  0  0  0  0
 58 71  1  0  0  0  0
 59 60  1  0  0  0  0
 60 61  1  0  0  0  0
 63 64  1  0  0  0  0
 64 65  1  0  0  0  0
 67 68  4  0  0  0  0
 67 72  4  0  0  0  0
 68 69  4  0  0  0  0
 69 70  4  0  0  0  0
 70 71  4  0  0  0  0
 71 72  4  0  0  0  0
M  END
$$$$
