mol_bioactive_1
  PyMOL3.1          3D                             0

 73 79  0  0  0  0  0  0  0  0999 V2000
   -0.5397   14.4651  -13.6446 C   0  0  0  0  0  0  0  0  0  0  0  0
   -0.4545   14.4571  -12.1266 C   0  0  0  0  0  0  0  0  0  0  0  0
   -0.6144   15.7162  -11.5398 O   0  0  0  0  0  0  0  0  0  0  0  0
   -1.8994   16.0758  -11.0754 C   0  0  0  0  0  0  0  0  0  0  0  0
    0.8476   13.9456  -11.6603 C   0  0  0  0  0  0  0  0  0  0  0  0
    1.9448   14.5121  -12.1305 N   0  0  0  0  0  0  0  0  0  0  0  0
    3.1512   14.0869  -11.7275 C   0  0  0  0  0  0  0  0  0  0  0  0
    3.2735   13.0266  -10.8249 C   0  0  0  0  0  0  0  0  0  0  0  0
    2.1460   12.4312  -10.3544 C   0  0  0  0  0  0  0  0  0  0  0  0
    0.9312   12.8925  -10.7680 C   0  0  0  0  0  0  0  0  0  0  0  0
   -0.2638   12.2923  -10.2486 C   0  0  0  0  0  0  0  0  0  0  0  0
   -0.9154   11.2753  -10.8693 N   0  0  0  0  0  0  0  0  0  0  0  0
   -0.5328   10.5677  -12.0980 C   0  0  0  0  0  0  0  0  0  0  0  0
    0.1034    9.2170  -11.7613 C   0  0  0  0  0  0  0  0  0  0  0  0
   -0.9639   12.6868   -9.1221 C   0  0  0  0  0  0  0  0  0  0  0  0
   -0.6802   13.7357   -8.1001 C   0  0  0  0  0  0  0  0  0  0  0  0
    0.0731   13.2591   -6.8160 C   0  0  0  0  0  0  0  0  0  0  0  0
   -0.4815   14.0323   -5.6179 C   0  0  0  0  0  0  0  0  0  0  0  0
    1.5778   13.5765   -6.9470 C   0  0  0  0  0  0  0  0  0  0  0  0
    0.0074   11.8539   -6.5535 C   0  0  0  0  0  0  0  0  0  0  0  0
   -0.6517   11.3644   -5.3344 O   0  0  0  0  0  0  0  0  0  0  0  0
   -0.9270    9.9997   -5.1134 C   0  0  0  0  0  0  0  0  0  0  0  0
   -1.6406    9.7132   -3.8305 C   0  0  0  0  0  0  0  0  0  0  0  0
   -2.3724    8.4720   -3.9994 N   0  0  0  0  0  0  0  0  0  0  0  0
   -3.0441    8.0460   -2.8759 N   0  0  0  0  0  0  0  0  0  0  0  0
   -4.4007    7.9721   -2.8541 C   0  0  0  0  0  0  0  0  0  0  0  0
   -5.1300    8.3732   -4.1063 C   0  0  0  0  0  0  0  0  0  0  0  0
   -6.3283    7.5784   -4.3440 N   0  0  0  0  0  0  0  0  0  0  0  0
   -6.4046    6.5583   -5.2071 C   0  0  0  0  0  0  0  0  0  0  0  0
   -7.7739    5.9856   -5.3477 C   0  0  0  0  0  0  0  0  0  0  0  0
   -7.8759    4.4732   -4.9996 C   0  0  0  0  0  0  0  0  0  0  0  0
   -9.2940    3.9719   -5.2626 C   0  0  0  0  0  0  0  0  0  0  0  0
   -7.5243    4.2530   -3.5248 C   0  0  0  0  0  0  0  0  0  0  0  0
   -8.2613    6.2642   -6.6694 N   0  0  0  0  0  0  0  0  0  0  0  0
   -9.1489    7.2746   -6.8107 C   0  0  0  0  0  0  0  0  0  0  0  0
   -9.8755    7.4600   -8.1120 C   0  0  0  0  0  0  0  0  0  0  0  0
  -10.8542    8.6157   -8.0207 C   0  0  0  0  0  0  0  0  0  0  0  0
  -11.7037    8.6580   -9.2393 C   0  0  0  0  0  0  0  0  0  0  0  0
  -12.3116    7.3390   -9.4181 N   0  0  0  0  0  0  0  0  0  0  0  0
  -13.6259    7.0658   -9.2631 C   0  0  0  0  0  0  0  0  0  0  0  0
  -14.4387    8.0143   -8.6447 C   0  0  0  0  0  0  0  0  0  0  0  0
  -15.1723    8.7143   -8.1395 C   0  0  0  0  0  0  0  0  0  0  0  0
  -16.0120    9.6321   -7.4054 C   0  0  0  0  0  0  0  0  0  0  0  0
  -15.2201   10.3146   -6.3680 N   0  0  0  0  0  0  0  0  0  0  0  0
  -14.4575    9.4075   -5.4965 C   0  0  0  0  0  0  0  0  0  0  0  0
  -14.3930   11.4210   -6.8472 C   0  0  0  0  0  0  0  0  0  0  0  0
  -17.1387    8.8522   -6.7259 C   0  0  0  0  0  0  0  0  0  0  0  0
  -16.5763   10.6479   -8.3963 C   0  0  0  0  0  0  0  0  0  0  0  0
  -14.0809    5.9839   -9.6023 O   0  0  0  0  0  0  0  0  0  0  0  0
  -11.4267    6.2400   -9.6056 C   0  0  0  0  0  0  0  0  0  0  0  0
  -10.6524    6.1697   -8.3304 C   0  0  0  0  0  0  0  0  0  0  0  0
   -9.4015    8.0234   -5.8546 O   0  0  0  0  0  0  0  0  0  0  0  0
   -7.7279    5.4366   -7.7853 C   0  0  0  0  0  0  0  0  0  0  0  0
   -5.4482    6.1726   -5.8665 O   0  0  0  0  0  0  0  0  0  0  0  0
   -5.5102    9.8628   -3.9228 C   0  0  0  0  0  0  0  0  0  0  0  0
   -5.5772   10.7219   -5.1483 C   0  0  0  0  0  0  0  0  0  0  0  0
   -5.0233   10.1096   -6.4112 C   0  0  0  0  0  0  0  0  0  0  0  0
   -5.2853   10.9565   -7.5592 N   0  0  0  0  0  0  0  0  0  0  0  0
   -6.0202   12.2708   -7.2637 C   0  0  0  0  0  0  0  0  0  0  0  0
   -7.1165   12.0858   -6.3618 C   0  0  0  0  0  0  0  0  0  0  0  0
   -6.9286   11.0998   -5.3469 O   0  0  0  0  0  0  0  0  0  0  0  0
   -5.0292    7.7035   -1.8567 O   0  0  0  0  0  0  0  0  0  0  0  0
   -2.2086    7.8135   -1.7044 C   0  0  0  0  0  0  0  0  0  0  0  0
   -1.4136    9.1134   -1.4160 C   0  0  0  0  0  0  0  0  0  0  0  0
   -0.6751    9.5722   -2.6495 C   0  0  0  0  0  0  0  0  0  0  0  0
   -0.6726    9.0296   -5.8708 O   0  0  0  0  0  0  0  0  0  0  0  0
   -2.0583   11.8672   -9.1023 C   0  0  0  0  0  0  0  0  0  0  0  0
   -2.0008   10.9939  -10.1751 C   0  0  0  0  0  0  0  0  0  0  0  0
   -3.0359   10.0401  -10.3546 C   0  0  0  0  0  0  0  0  0  0  0  0
   -4.0805   10.0281   -9.4425 C   0  0  0  0  0  0  0  0  0  0  0  0
   -4.1400   10.9665   -8.4006 C   0  0  0  0  0  0  0  0  0  0  0  0
   -3.0651   11.8595   -8.2363 C   0  0  0  0  0  0  0  0  0  0  0  0
   -8.9640    7.7028   -9.1338 F   0  0  0  0  0  0  0  0  0  0  0  0
  1  2  1  0  0  0  0
  2  3  1  0  0  0  0
  2  5  1  0  0  0  0
  3  4  1  0  0  0  0
  5  6  4  0  0  0  0
  5 10  4  0  0  0  0
  6  7  4  0  0  0  0
  7  8  4  0  0  0  0
  8  9  4  0  0  0  0
  9 10  4  0  0  0  0
 10 11  1  0  0  0  0
 11 12  4  0  0  0  0
 11 15  4  0  0  0  0
 12 13  1  0  0  0  0
 12 68  4  0  0  0  0
 13 14  1  0  0  0  0
 15 16  1  0  0  0  0
 15 67  4  0  0  0  0
 16 17  1  0  0  0  0
 17 18  1  0  0  0  0
 17 19  1  0  0  0  0
 17 20  1  0  0  0  0
 20 21  1  0  0  0  0
 21 22  1  0  0  0  0
 22 23  1  0  0  0  0
 22 66  2  0  0  0  0
 23 24  1  0  0  0  0
 23 65  1  0  0  0  0
 24 25  1  0  0  0  0
 25 26  1  0  0  0  0
 25 63  1  0  0  0  0
 26 27  1  0  0  0  0
 26 62  2  0  0  0  0
 27 28  1  0  0  0  0
 27 55  1  0  0  0  0
 28 29  1  0  0  0  0
 29 30  1  0  0  0  0
 29 54  2  0  0  0  0
 30 31  1  0  0  0  0
 30 34  1  0  0  0  0
 31 32  1  0  0  0  0
 31 33  1  0  0  0  0
 34 35  1  0  0  0  0
 34 53  1  0  0  0  0
 35 36  1  0  0  0  0
 35 52  2  0  0  0  0
 36 37  1  0  0  0  0
 36 51  1  0  0  0  0
 36 73  1  0  0  0  0
 37 38  1  0  0  0  0
 38 39  1  0  0  0  0
 39 40  1  0  0  0  0
 39 50  1  0  0  0  0
 40 41  1  0  0  0  0
 40 49  2  0  0  0  0
 41 42  1  0  0  0  0
 42 43  1  0  0  0  0
 43 44  1  0  0  0  0
 43 47  1  0  0  0  0
 43 48  1  0  0  0  0
 44 45  1  0  0  0  0
 44 46  1  0  0  0  0
 50 51  1  0  0  0  0
 55 56  1  0  0  0  0
 56 57  1  0  0  0  0
 56 61  1  0  0  0  0
 57 58  1  0  0  0  0
 58 59  1  0  0  0  0
 58 71  1  0  0  0  0
 59 60  1  0  0  0  0
 60 61  1  0  0  0  0
 63 64  1  0  0  0  0
 64 65  1  0  0  0  0
 67 68  4  0  0  0  0
 67 72  4  0  0  0  0
 68 69  4  0  0  0  0
 69 70  4  0  0  0  0
 70 71  4  0  0  0  0
 71 72  4  0  0  0  0
M  END
$$$$
