mol_ETKDG1_46
  PyMOL3.1          3D                             0

 73 79  0  0  0  0  0  0  0  0999 V2000
   -0.1496   16.3092  -11.4844 C   0  0  0  0  0  0  0  0  0  0  0  0
   -0.2667   14.8101  -11.4954 C   0  0  0  0  0  0  0  0  0  0  0  0
   -0.6799   14.2762  -12.7151 O   0  0  0  0  0  0  0  0  0  0  0  0
   -2.0752   14.2635  -12.9723 C   0  0  0  0  0  0  0  0  0  0  0  0
    1.0046   14.1435  -11.1370 C   0  0  0  0  0  0  0  0  0  0  0  0
    2.1498   14.7073  -11.4754 N   0  0  0  0  0  0  0  0  0  0  0  0
    3.3130   14.1091  -11.2034 C   0  0  0  0  0  0  0  0  0  0  0  0
    3.3521   12.8892  -10.5317 C   0  0  0  0  0  0  0  0  0  0  0  0
    2.1804   12.3165  -10.1736 C   0  0  0  0  0  0  0  0  0  0  0  0
    1.0073   12.9361  -10.4916 C   0  0  0  0  0  0  0  0  0  0  0  0
   -0.2288   12.3339  -10.1026 C   0  0  0  0  0  0  0  0  0  0  0  0
   -0.8561   11.3494  -10.8008 N   0  0  0  0  0  0  0  0  0  0  0  0
   -0.4055   10.6952  -12.0325 C   0  0  0  0  0  0  0  0  0  0  0  0
    0.2042    9.3271  -11.7143 C   0  0  0  0  0  0  0  0  0  0  0  0
   -1.0025   12.6959   -9.0094 C   0  0  0  0  0  0  0  0  0  0  0  0
   -0.7844   13.7382   -7.9660 C   0  0  0  0  0  0  0  0  0  0  0  0
   -0.0523   13.2659   -6.6835 C   0  0  0  0  0  0  0  0  0  0  0  0
   -0.6411   14.0053   -5.4757 C   0  0  0  0  0  0  0  0  0  0  0  0
    1.4570   13.5802   -6.7509 C   0  0  0  0  0  0  0  0  0  0  0  0
   -0.1108   11.8605   -6.4542 C   0  0  0  0  0  0  0  0  0  0  0  0
   -0.7581   11.3385   -5.2568 O   0  0  0  0  0  0  0  0  0  0  0  0
   -1.0240    9.9768   -5.0858 C   0  0  0  0  0  0  0  0  0  0  0  0
   -1.7306    9.6766   -3.8084 C   0  0  0  0  0  0  0  0  0  0  0  0
   -2.4334    8.4192   -3.9782 N   0  0  0  0  0  0  0  0  0  0  0  0
   -3.1036    8.0042   -2.8590 N   0  0  0  0  0  0  0  0  0  0  0  0
   -4.4598    7.9157   -2.8534 C   0  0  0  0  0  0  0  0  0  0  0  0
   -5.1710    8.2041   -4.1445 C   0  0  0  0  0  0  0  0  0  0  0  0
   -6.3529    7.3933   -4.3244 N   0  0  0  0  0  0  0  0  0  0  0  0
   -6.4357    6.4300   -5.2314 C   0  0  0  0  0  0  0  0  0  0  0  0
   -7.7874    5.8275   -5.3774 C   0  0  0  0  0  0  0  0  0  0  0  0
   -7.8465    4.3238   -4.9751 C   0  0  0  0  0  0  0  0  0  0  0  0
   -9.2402    3.7758   -5.2194 C   0  0  0  0  0  0  0  0  0  0  0  0
   -7.4917    4.1631   -3.4925 C   0  0  0  0  0  0  0  0  0  0  0  0
   -8.2315    6.0121   -6.7327 N   0  0  0  0  0  0  0  0  0  0  0  0
   -9.2263    6.9036   -6.9485 C   0  0  0  0  0  0  0  0  0  0  0  0
   -9.9189    6.9279   -8.2877 C   0  0  0  0  0  0  0  0  0  0  0  0
  -11.1876    7.7777   -8.2419 C   0  0  0  0  0  0  0  0  0  0  0  0
  -11.9783    7.5872   -9.4864 C   0  0  0  0  0  0  0  0  0  0  0  0
  -12.1797    6.1517   -9.7092 N   0  0  0  0  0  0  0  0  0  0  0  0
  -13.3413    5.4714   -9.6551 C   0  0  0  0  0  0  0  0  0  0  0  0
  -14.4956    6.1466   -9.3041 C   0  0  0  0  0  0  0  0  0  0  0  0
  -15.5106    6.6024   -9.0446 C   0  0  0  0  0  0  0  0  0  0  0  0
  -16.7249    7.2361   -8.6599 C   0  0  0  0  0  0  0  0  0  0  0  0
  -16.4859    8.0882   -7.4829 N   0  0  0  0  0  0  0  0  0  0  0  0
  -15.9402    7.3486   -6.3401 C   0  0  0  0  0  0  0  0  0  0  0  0
  -15.7005    9.2957   -7.7703 C   0  0  0  0  0  0  0  0  0  0  0  0
  -17.7542    6.1600   -8.2966 C   0  0  0  0  0  0  0  0  0  0  0  0
  -17.2139    8.0874   -9.8319 C   0  0  0  0  0  0  0  0  0  0  0  0
  -13.3911    4.2664   -9.8894 O   0  0  0  0  0  0  0  0  0  0  0  0
  -11.0141    5.3744   -9.8538 C   0  0  0  0  0  0  0  0  0  0  0  0
  -10.3532    5.4991   -8.5412 C   0  0  0  0  0  0  0  0  0  0  0  0
   -9.6010    7.6668   -6.0506 O   0  0  0  0  0  0  0  0  0  0  0  0
   -7.5572    5.2139   -7.7835 C   0  0  0  0  0  0  0  0  0  0  0  0
   -5.4774    6.0974   -5.9200 O   0  0  0  0  0  0  0  0  0  0  0  0
   -5.6247    9.6871   -4.1208 C   0  0  0  0  0  0  0  0  0  0  0  0
   -6.0989   10.1083   -5.4963 C   0  0  0  0  0  0  0  0  0  0  0  0
   -4.8828   10.3681   -6.3332 C   0  0  0  0  0  0  0  0  0  0  0  0
   -5.2927   10.8556   -7.6571 N   0  0  0  0  0  0  0  0  0  0  0  0
   -6.2024   12.0665   -7.5217 C   0  0  0  0  0  0  0  0  0  0  0  0
   -7.3898   11.7128   -6.6732 C   0  0  0  0  0  0  0  0  0  0  0  0
   -6.9289   11.2514   -5.3889 O   0  0  0  0  0  0  0  0  0  0  0  0
   -5.0978    7.6823   -1.8591 O   0  0  0  0  0  0  0  0  0  0  0  0
   -2.2709    7.7849   -1.6888 C   0  0  0  0  0  0  0  0  0  0  0  0
   -1.4943    9.0980   -1.3966 C   0  0  0  0  0  0  0  0  0  0  0  0
   -0.7562    9.5562   -2.6384 C   0  0  0  0  0  0  0  0  0  0  0  0
   -0.7698    9.0083   -5.8549 O   0  0  0  0  0  0  0  0  0  0  0  0
   -2.0951   11.8763   -9.0716 C   0  0  0  0  0  0  0  0  0  0  0  0
   -1.9783   11.0464  -10.1757 C   0  0  0  0  0  0  0  0  0  0  0  0
   -3.0007   10.1050  -10.4428 C   0  0  0  0  0  0  0  0  0  0  0  0
   -4.0830   10.0502   -9.5850 C   0  0  0  0  0  0  0  0  0  0  0  0
   -4.1844   10.9295   -8.4898 C   0  0  0  0  0  0  0  0  0  0  0  0
   -3.1605   11.8300   -8.2403 C   0  0  0  0  0  0  0  0  0  0  0  0
   -9.0425    7.3796   -9.2594 F   0  0  0  0  0  0  0  0  0  0  0  0
  1  2  1  0  0  0  0
  2  3  1  0  0  0  0
  2  5  1  0  0  0  0
  3  4  1  0  0  0  0
  5  6  4  0  0  0  0
  5 10  4  0  0  0  0
  6  7  4  0  0  0  0
  7  8  4  0  0  0  0
  8  9  4  0  0  0  0
  9 10  4  0  0  0  0
 10 11  1  0  0  0  0
 11 12  4  0  0  0  0
 11 15  4  0  0  0  0
 12 13  1  0  0  0  0
 12 68  4  0  0  0  0
 13 14  1  0  0  0  0
 15 16  1  0  0  0  0
 15 67  4  0  0  0  0
 16 17  1  0  0  0  0
 17 18  1  0  0  0  0
 17 19  1  0  0  0  0
 17 20  1  0  0  0  0
 20 21  1  0  0  0  0
 21 22  1  0  0  0  0
 22 23  1  0  0  0  0
 22 66  2  0  0  0  0
 23 24  1  0  0  0  0
 23 65  1  0  0  0  0
 24 25  1  0  0  0  0
 25 26  1  0  0  0  0
 25 63  1  0  0  0  0
 26 27  1  0  0  0  0
 26 62  2  0  0  0  0
 27 28  1  0  0  0  0
 27 55  1  0  0  0  0
 28 29  1  0  0  0  0
 29 30  1  0  0  0  0
 29 54  2  0  0  0  0
 30 31  1  0  0  0  0
 30 34  1  0  0  0  0
 31 32  1  0  0  0  0
 31 33  1  0  0  0  0
 34 35  1  0  0  0  0
 34 53  1  0  0  0  0
 35 36  1  0  0  0  0
 35 52  2  0  0  0  0
 36 37  1  0  0  0  0
 36 51  1  0  0  0  0
 36 73  1  0  0  0  0
 37 38  1  0  0  0  0
 38 39  1  0  0  0  0
 39 40  1  0  0  0  0
 39 50  1  0  0  0  0
 40 41  1  0  0  0  0
 40 49  2  0  0  0  0
 41 42  1  0  0  0  0
 42 43  1  0  0  0  0
 43 44  1  0  0  0  0
 43 47  1  0  0  0  0
 43 48  1  0  0  0  0
 44 45  1  0  0  0  0
 44 46  1  0  0  0  0
 50 51  1  0  0  0  0
 55 56  1  0  0  0  0
 56 57  1  0  0  0  0
 56 61  1  0  0  0  0
 57 58  1  0  0  0  0
 58 59  1  0  0  0  0
 58 71  1  0  0  0  0
 59 60  1  0  0  0  0
 60 61  1  0  0  0  0
 63 64  1  0  0  0  0
 64 65  1  0  0  0  0
 67 68  4  0  0  0  0
 67 72  4  0  0  0  0
 68 69  4  0  0  0  0
 69 70  4  0  0  0  0
 70 71  4  0  0  0  0
 71 72  4  0  0  0  0
M  END
$$$$
