mol_bioactive_25
  PyMOL3.1          3D                             0

 73 79  0  0  0  0  0  0  0  0999 V2000
   -0.4310   16.3566  -11.0207 C   0  0  0  0  0  0  0  0  0  0  0  0
   -0.0338   15.1146  -11.8289 C   0  0  0  0  0  0  0  0  0  0  0  0
   -1.0422   14.2175  -12.0147 O   0  0  0  0  0  0  0  0  0  0  0  0
   -2.2396   14.5658  -12.6615 C   0  0  0  0  0  0  0  0  0  0  0  0
    1.1203   14.4055  -11.2170 C   0  0  0  0  0  0  0  0  0  0  0  0
    2.2667   14.9856  -11.4940 N   0  0  0  0  0  0  0  0  0  0  0  0
    3.4139   14.4511  -11.1204 C   0  0  0  0  0  0  0  0  0  0  0  0
    3.4451   13.2625  -10.4134 C   0  0  0  0  0  0  0  0  0  0  0  0
    2.2844   12.6470  -10.0919 C   0  0  0  0  0  0  0  0  0  0  0  0
    1.1050   13.1974  -10.4740 C   0  0  0  0  0  0  0  0  0  0  0  0
   -0.1227   12.5473  -10.0730 C   0  0  0  0  0  0  0  0  0  0  0  0
   -0.7327   11.5425  -10.7737 N   0  0  0  0  0  0  0  0  0  0  0  0
   -0.2732   10.8834  -12.0024 C   0  0  0  0  0  0  0  0  0  0  0  0
    0.3320    9.5111  -11.6849 C   0  0  0  0  0  0  0  0  0  0  0  0
   -0.8882   12.8622   -8.9655 C   0  0  0  0  0  0  0  0  0  0  0  0
   -0.6583   13.8617   -7.8901 C   0  0  0  0  0  0  0  0  0  0  0  0
    0.0677   13.3377   -6.6157 C   0  0  0  0  0  0  0  0  0  0  0  0
   -0.5573   14.0276   -5.4072 C   0  0  0  0  0  0  0  0  0  0  0  0
    1.5654   13.7033   -6.6661 C   0  0  0  0  0  0  0  0  0  0  0  0
    0.0292   11.9067   -6.4355 C   0  0  0  0  0  0  0  0  0  0  0  0
   -0.6300   11.3717   -5.2535 O   0  0  0  0  0  0  0  0  0  0  0  0
   -0.9371   10.0145   -5.0964 C   0  0  0  0  0  0  0  0  0  0  0  0
   -1.6656    9.7180   -3.8245 C   0  0  0  0  0  0  0  0  0  0  0  0
   -2.3812    8.4652   -3.9977 N   0  0  0  0  0  0  0  0  0  0  0  0
   -3.0714    8.0532   -2.8833 N   0  0  0  0  0  0  0  0  0  0  0  0
   -4.4354    7.9806   -2.8841 C   0  0  0  0  0  0  0  0  0  0  0  0
   -5.1523    8.3682   -4.1550 C   0  0  0  0  0  0  0  0  0  0  0  0
   -6.3404    7.5523   -4.3940 N   0  0  0  0  0  0  0  0  0  0  0  0
   -6.4047    6.5358   -5.2650 C   0  0  0  0  0  0  0  0  0  0  0  0
   -7.7617    5.9254   -5.4110 C   0  0  0  0  0  0  0  0  0  0  0  0
   -7.8269    4.4190   -5.0095 C   0  0  0  0  0  0  0  0  0  0  0  0
   -9.2229    3.8677   -5.2796 C   0  0  0  0  0  0  0  0  0  0  0  0
   -7.4940    4.2511   -3.5245 C   0  0  0  0  0  0  0  0  0  0  0  0
   -8.2174    6.1146   -6.7591 N   0  0  0  0  0  0  0  0  0  0  0  0
   -9.1846    7.0355   -6.9936 C   0  0  0  0  0  0  0  0  0  0  0  0
   -9.8246    7.1133   -8.3555 C   0  0  0  0  0  0  0  0  0  0  0  0
  -10.9522    8.1238   -8.4153 C   0  0  0  0  0  0  0  0  0  0  0  0
  -11.6133    8.0543   -9.7400 C   0  0  0  0  0  0  0  0  0  0  0  0
  -11.9963    6.6647  -10.0340 N   0  0  0  0  0  0  0  0  0  0  0  0
  -13.2454    6.2349  -10.2698 C   0  0  0  0  0  0  0  0  0  0  0  0
  -14.3011    7.0957  -10.0324 C   0  0  0  0  0  0  0  0  0  0  0  0
  -15.2428    7.6922   -9.8699 C   0  0  0  0  0  0  0  0  0  0  0  0
  -16.3431    8.5238   -9.5503 C   0  0  0  0  0  0  0  0  0  0  0  0
  -16.1962    9.0377   -8.2076 N   0  0  0  0  0  0  0  0  0  0  0  0
  -15.5696    8.2405   -7.2140 C   0  0  0  0  0  0  0  0  0  0  0  0
  -17.0037   10.1041   -7.7714 C   0  0  0  0  0  0  0  0  0  0  0  0
  -17.6272    7.7108   -9.6364 C   0  0  0  0  0  0  0  0  0  0  0  0
  -16.3592    9.6889  -10.5503 C   0  0  0  0  0  0  0  0  0  0  0  0
  -13.4483    5.0916  -10.6490 O   0  0  0  0  0  0  0  0  0  0  0  0
  -10.9723    5.6801   -9.9925 C   0  0  0  0  0  0  0  0  0  0  0  0
  -10.4158    5.7423   -8.6248 C   0  0  0  0  0  0  0  0  0  0  0  0
   -9.5592    7.7942   -6.0892 O   0  0  0  0  0  0  0  0  0  0  0  0
   -7.5634    5.2872   -7.8119 C   0  0  0  0  0  0  0  0  0  0  0  0
   -5.4372    6.1819   -5.9264 O   0  0  0  0  0  0  0  0  0  0  0  0
   -5.5472    9.8604   -3.9983 C   0  0  0  0  0  0  0  0  0  0  0  0
   -5.6361   10.6998   -5.2444 C   0  0  0  0  0  0  0  0  0  0  0  0
   -4.9982   10.1174   -6.4900 C   0  0  0  0  0  0  0  0  0  0  0  0
   -5.2571   10.9464   -7.6573 N   0  0  0  0  0  0  0  0  0  0  0  0
   -6.0716   12.1968   -7.4304 C   0  0  0  0  0  0  0  0  0  0  0  0
   -7.2107   11.9639   -6.5431 C   0  0  0  0  0  0  0  0  0  0  0  0
   -7.0021   11.0046   -5.5013 O   0  0  0  0  0  0  0  0  0  0  0  0
   -5.0752    7.7235   -1.8895 O   0  0  0  0  0  0  0  0  0  0  0  0
   -2.2497    7.8417   -1.6933 C   0  0  0  0  0  0  0  0  0  0  0  0
   -1.4637    9.1499   -1.4058 C   0  0  0  0  0  0  0  0  0  0  0  0
   -0.7116    9.5983   -2.6324 C   0  0  0  0  0  0  0  0  0  0  0  0
   -0.6951    9.0654   -5.8811 O   0  0  0  0  0  0  0  0  0  0  0  0
   -1.9783   12.0239   -9.0324 C   0  0  0  0  0  0  0  0  0  0  0  0
   -1.8542   11.2072  -10.1466 C   0  0  0  0  0  0  0  0  0  0  0  0
   -2.8699   10.2483  -10.4186 C   0  0  0  0  0  0  0  0  0  0  0  0
   -3.9615   10.1697   -9.5535 C   0  0  0  0  0  0  0  0  0  0  0  0
   -4.0843   11.0397   -8.4591 C   0  0  0  0  0  0  0  0  0  0  0  0
   -3.0438   11.9526   -8.2009 C   0  0  0  0  0  0  0  0  0  0  0  0
   -8.8560    7.4557   -9.2898 F   0  0  0  0  0  0  0  0  0  0  0  0
  1  2  1  0  0  0  0
  2  3  1  0  0  0  0
  2  5  1  0  0  0  0
  3  4  1  0  0  0  0
  5  6  4  0  0  0  0
  5 10  4  0  0  0  0
  6  7  4  0  0  0  0
  7  8  4  0  0  0  0
  8  9  4  0  0  0  0
  9 10  4  0  0  0  0
 10 11  1  0  0  0  0
 11 12  4  0  0  0  0
 11 15  4  0  0  0  0
 12 13  1  0  0  0  0
 12 68  4  0  0  0  0
 13 14  1  0  0  0  0
 15 16  1  0  0  0  0
 15 67  4  0  0  0  0
 16 17  1  0  0  0  0
 17 18  1  0  0  0  0
 17 19  1  0  0  0  0
 17 20  1  0  0  0  0
 20 21  1  0  0  0  0
 21 22  1  0  0  0  0
 22 23  1  0  0  0  0
 22 66  2  0  0  0  0
 23 24  1  0  0  0  0
 23 65  1  0  0  0  0
 24 25  1  0  0  0  0
 25 26  1  0  0  0  0
 25 63  1  0  0  0  0
 26 27  1  0  0  0  0
 26 62  2  0  0  0  0
 27 28  1  0  0  0  0
 27 55  1  0  0  0  0
 28 29  1  0  0  0  0
 29 30  1  0  0  0  0
 29 54  2  0  0  0  0
 30 31  1  0  0  0  0
 30 34  1  0  0  0  0
 31 32  1  0  0  0  0
 31 33  1  0  0  0  0
 34 35  1  0  0  0  0
 34 53  1  0  0  0  0
 35 36  1  0  0  0  0
 35 52  2  0  0  0  0
 36 37  1  0  0  0  0
 36 51  1  0  0  0  0
 36 73  1  0  0  0  0
 37 38  1  0  0  0  0
 38 39  1  0  0  0  0
 39 40  1  0  0  0  0
 39 50  1  0  0  0  0
 40 41  1  0  0  0  0
 40 49  2  0  0  0  0
 41 42  1  0  0  0  0
 42 43  1  0  0  0  0
 43 44  1  0  0  0  0
 43 47  1  0  0  0  0
 43 48  1  0  0  0  0
 44 45  1  0  0  0  0
 44 46  1  0  0  0  0
 50 51  1  0  0  0  0
 55 56  1  0  0  0  0
 56 57  1  0  0  0  0
 56 61  1  0  0  0  0
 57 58  1  0  0  0  0
 58 59  1  0  0  0  0
 58 71  1  0  0  0  0
 59 60  1  0  0  0  0
 60 61  1  0  0  0  0
 63 64  1  0  0  0  0
 64 65  1  0  0  0  0
 67 68  4  0  0  0  0
 67 72  4  0  0  0  0
 68 69  4  0  0  0  0
 69 70  4  0  0  0  0
 70 71  4  0  0  0  0
 71 72  4  0  0  0  0
M  END
$$$$
