mol_ETKDG1_45
  PyMOL3.1          3D                             0

 73 79  0  0  0  0  0  0  0  0999 V2000
    0.0639   15.4439  -13.1203 C   0  0  0  0  0  0  0  0  0  0  0  0
   -0.0991   14.8779  -11.7270 C   0  0  0  0  0  0  0  0  0  0  0  0
   -0.5720   15.8087  -10.8135 O   0  0  0  0  0  0  0  0  0  0  0  0
   -1.9741   16.0982  -10.8199 C   0  0  0  0  0  0  0  0  0  0  0  0
    1.1764   14.3384  -11.1940 C   0  0  0  0  0  0  0  0  0  0  0  0
    2.3095   14.9274  -11.5364 N   0  0  0  0  0  0  0  0  0  0  0  0
    3.4834   14.4609  -11.0938 C   0  0  0  0  0  0  0  0  0  0  0  0
    3.5458   13.3311  -10.2797 C   0  0  0  0  0  0  0  0  0  0  0  0
    2.3864   12.7199   -9.9311 C   0  0  0  0  0  0  0  0  0  0  0  0
    1.2017   13.2296  -10.3776 C   0  0  0  0  0  0  0  0  0  0  0  0
   -0.0317   12.6139   -9.9706 C   0  0  0  0  0  0  0  0  0  0  0  0
   -0.6705   11.6353  -10.6687 N   0  0  0  0  0  0  0  0  0  0  0  0
   -0.2121   10.9930  -11.9073 C   0  0  0  0  0  0  0  0  0  0  0  0
    0.4680    9.6537  -11.5816 C   0  0  0  0  0  0  0  0  0  0  0  0
   -0.7969   12.9598   -8.8594 C   0  0  0  0  0  0  0  0  0  0  0  0
   -0.5617   13.9627   -7.7839 C   0  0  0  0  0  0  0  0  0  0  0  0
    0.1376   13.4193   -6.5085 C   0  0  0  0  0  0  0  0  0  0  0  0
   -0.4621   14.1155   -5.2803 C   0  0  0  0  0  0  0  0  0  0  0  0
    1.6521   13.7028   -6.5398 C   0  0  0  0  0  0  0  0  0  0  0  0
    0.0363   11.9803   -6.3373 C   0  0  0  0  0  0  0  0  0  0  0  0
   -0.6507   11.4331   -5.1705 O   0  0  0  0  0  0  0  0  0  0  0  0
   -0.9528   10.0632   -5.0494 C   0  0  0  0  0  0  0  0  0  0  0  0
   -1.6772    9.7284   -3.7844 C   0  0  0  0  0  0  0  0  0  0  0  0
   -2.4014    8.4782   -3.9870 N   0  0  0  0  0  0  0  0  0  0  0  0
   -3.0759    8.0303   -2.8719 N   0  0  0  0  0  0  0  0  0  0  0  0
   -4.4355    7.9371   -2.8645 C   0  0  0  0  0  0  0  0  0  0  0  0
   -5.1563    8.2732   -4.1467 C   0  0  0  0  0  0  0  0  0  0  0  0
   -6.3606    7.4920   -4.3452 N   0  0  0  0  0  0  0  0  0  0  0  0
   -6.4934    6.5547   -5.2889 C   0  0  0  0  0  0  0  0  0  0  0  0
   -7.8783    5.9974   -5.3918 C   0  0  0  0  0  0  0  0  0  0  0  0
   -7.9636    4.4788   -5.0657 C   0  0  0  0  0  0  0  0  0  0  0  0
   -9.3915    3.9852   -5.2462 C   0  0  0  0  0  0  0  0  0  0  0  0
   -7.5220    4.2411   -3.6109 C   0  0  0  0  0  0  0  0  0  0  0  0
   -8.4342    6.3185   -6.6912 N   0  0  0  0  0  0  0  0  0  0  0  0
   -9.2732    7.3870   -6.7523 C   0  0  0  0  0  0  0  0  0  0  0  0
  -10.1561    7.6224   -7.9630 C   0  0  0  0  0  0  0  0  0  0  0  0
  -11.0820    8.8230   -7.7028 C   0  0  0  0  0  0  0  0  0  0  0  0
  -12.1310    8.9362   -8.7409 C   0  0  0  0  0  0  0  0  0  0  0  0
  -12.8290    7.6531   -8.8805 N   0  0  0  0  0  0  0  0  0  0  0  0
  -14.1324    7.4050   -8.5593 C   0  0  0  0  0  0  0  0  0  0  0  0
  -14.7728    8.1669   -7.5861 C   0  0  0  0  0  0  0  0  0  0  0  0
  -15.4247    8.6570   -6.7935 C   0  0  0  0  0  0  0  0  0  0  0  0
  -16.1053    9.3135   -5.6999 C   0  0  0  0  0  0  0  0  0  0  0  0
  -16.6955    8.2905   -4.8001 N   0  0  0  0  0  0  0  0  0  0  0  0
  -15.6780    7.4804   -4.1047 C   0  0  0  0  0  0  0  0  0  0  0  0
  -17.7076    7.4331   -5.4545 C   0  0  0  0  0  0  0  0  0  0  0  0
  -15.1054   10.1905   -4.9128 C   0  0  0  0  0  0  0  0  0  0  0  0
  -17.2042   10.2006   -6.2991 C   0  0  0  0  0  0  0  0  0  0  0  0
  -14.7338    6.4602   -9.0508 O   0  0  0  0  0  0  0  0  0  0  0  0
  -12.0077    6.5381   -9.2389 C   0  0  0  0  0  0  0  0  0  0  0  0
  -11.0352    6.3785   -8.1007 C   0  0  0  0  0  0  0  0  0  0  0  0
   -9.3668    8.1638   -5.7865 O   0  0  0  0  0  0  0  0  0  0  0  0
   -8.0447    5.4727   -7.8460 C   0  0  0  0  0  0  0  0  0  0  0  0
   -5.5783    6.2149   -6.0265 O   0  0  0  0  0  0  0  0  0  0  0  0
   -5.5547    9.7745   -4.0458 C   0  0  0  0  0  0  0  0  0  0  0  0
   -5.9988   10.3335   -5.3797 C   0  0  0  0  0  0  0  0  0  0  0  0
   -4.7709   10.5178   -6.2399 C   0  0  0  0  0  0  0  0  0  0  0  0
   -5.1336   11.1960   -7.4899 N   0  0  0  0  0  0  0  0  0  0  0  0
   -5.9029   12.4997   -7.1720 C   0  0  0  0  0  0  0  0  0  0  0  0
   -7.1009   12.2004   -6.3564 C   0  0  0  0  0  0  0  0  0  0  0  0
   -6.6836   11.5498   -5.1430 O   0  0  0  0  0  0  0  0  0  0  0  0
   -5.0738    7.6841   -1.8771 O   0  0  0  0  0  0  0  0  0  0  0  0
   -2.2459    7.7810   -1.7093 C   0  0  0  0  0  0  0  0  0  0  0  0
   -1.4539    9.0779   -1.3875 C   0  0  0  0  0  0  0  0  0  0  0  0
   -0.7099    9.5644   -2.6146 C   0  0  0  0  0  0  0  0  0  0  0  0
   -0.7102    9.1298   -5.8534 O   0  0  0  0  0  0  0  0  0  0  0  0
   -1.9019   12.1469   -8.9257 C   0  0  0  0  0  0  0  0  0  0  0  0
   -1.7985   11.3278  -10.0357 C   0  0  0  0  0  0  0  0  0  0  0  0
   -2.8344   10.3945  -10.3000 C   0  0  0  0  0  0  0  0  0  0  0  0
   -3.9169   10.3455   -9.4274 C   0  0  0  0  0  0  0  0  0  0  0  0
   -4.0114   11.2316   -8.3283 C   0  0  0  0  0  0  0  0  0  0  0  0
   -2.9362   12.1016   -8.0963 C   0  0  0  0  0  0  0  0  0  0  0  0
   -9.3739    7.8254   -9.0899 F   0  0  0  0  0  0  0  0  0  0  0  0
  1  2  1  0  0  0  0
  2  3  1  0  0  0  0
  2  5  1  0  0  0  0
  3  4  1  0  0  0  0
  5  6  4  0  0  0  0
  5 10  4  0  0  0  0
  6  7  4  0  0  0  0
  7  8  4  0  0  0  0
  8  9  4  0  0  0  0
  9 10  4  0  0  0  0
 10 11  1  0  0  0  0
 11 12  4  0  0  0  0
 11 15  4  0  0  0  0
 12 13  1  0  0  0  0
 12 68  4  0  0  0  0
 13 14  1  0  0  0  0
 15 16  1  0  0  0  0
 15 67  4  0  0  0  0
 16 17  1  0  0  0  0
 17 18  1  0  0  0  0
 17 19  1  0  0  0  0
 17 20  1  0  0  0  0
 20 21  1  0  0  0  0
 21 22  1  0  0  0  0
 22 23  1  0  0  0  0
 22 66  2  0  0  0  0
 23 24  1  0  0  0  0
 23 65  1  0  0  0  0
 24 25  1  0  0  0  0
 25 26  1  0  0  0  0
 25 63  1  0  0  0  0
 26 27  1  0  0  0  0
 26 62  2  0  0  0  0
 27 28  1  0  0  0  0
 27 55  1  0  0  0  0
 28 29  1  0  0  0  0
 29 30  1  0  0  0  0
 29 54  2  0  0  0  0
 30 31  1  0  0  0  0
 30 34  1  0  0  0  0
 31 32  1  0  0  0  0
 31 33  1  0  0  0  0
 34 35  1  0  0  0  0
 34 53  1  0  0  0  0
 35 36  1  0  0  0  0
 35 52  2  0  0  0  0
 36 37  1  0  0  0  0
 36 51  1  0  0  0  0
 36 73  1  0  0  0  0
 37 38  1  0  0  0  0
 38 39  1  0  0  0  0
 39 40  1  0  0  0  0
 39 50  1  0  0  0  0
 40 41  1  0  0  0  0
 40 49  2  0  0  0  0
 41 42  1  0  0  0  0
 42 43  1  0  0  0  0
 43 44  1  0  0  0  0
 43 47  1  0  0  0  0
 43 48  1  0  0  0  0
 44 45  1  0  0  0  0
 44 46  1  0  0  0  0
 50 51  1  0  0  0  0
 55 56  1  0  0  0  0
 56 57  1  0  0  0  0
 56 61  1  0  0  0  0
 57 58  1  0  0  0  0
 58 59  1  0  0  0  0
 58 71  1  0  0  0  0
 59 60  1  0  0  0  0
 60 61  1  0  0  0  0
 63 64  1  0  0  0  0
 64 65  1  0  0  0  0
 67 68  4  0  0  0  0
 67 72  4  0  0  0  0
 68 69  4  0  0  0  0
 69 70  4  0  0  0  0
 70 71  4  0  0  0  0
 71 72  4  0  0  0  0
M  END
$$$$
