mol_ETKDG2_68
  PyMOL3.1          3D                             0

 73 79  0  0  0  0  0  0  0  0999 V2000
   -0.3893   16.1347  -12.7128 C   0  0  0  0  0  0  0  0  0  0  0  0
   -0.5577   14.8854  -11.8768 C   0  0  0  0  0  0  0  0  0  0  0  0
   -1.4235   14.0120  -12.5436 O   0  0  0  0  0  0  0  0  0  0  0  0
   -2.8228   14.2366  -12.3456 C   0  0  0  0  0  0  0  0  0  0  0  0
    0.7374   14.2081  -11.5995 C   0  0  0  0  0  0  0  0  0  0  0  0
    1.8419   14.7554  -12.0836 N   0  0  0  0  0  0  0  0  0  0  0  0
    3.0404   14.2089  -11.8675 C   0  0  0  0  0  0  0  0  0  0  0  0
    3.1711   13.0490  -11.1107 C   0  0  0  0  0  0  0  0  0  0  0  0
    2.0535   12.4709  -10.6109 C   0  0  0  0  0  0  0  0  0  0  0  0
    0.8370   13.0267  -10.8699 C   0  0  0  0  0  0  0  0  0  0  0  0
   -0.3425   12.3995  -10.3435 C   0  0  0  0  0  0  0  0  0  0  0  0
   -1.0151   11.3855  -10.9688 N   0  0  0  0  0  0  0  0  0  0  0  0
   -0.6520   10.6764  -12.2059 C   0  0  0  0  0  0  0  0  0  0  0  0
   -0.0112    9.3255  -11.8674 C   0  0  0  0  0  0  0  0  0  0  0  0
   -1.0205   12.7755   -9.1853 C   0  0  0  0  0  0  0  0  0  0  0  0
   -0.7008   13.8087   -8.1448 C   0  0  0  0  0  0  0  0  0  0  0  0
    0.0534   13.2942   -6.8706 C   0  0  0  0  0  0  0  0  0  0  0  0
   -0.4772   14.0651   -5.6583 C   0  0  0  0  0  0  0  0  0  0  0  0
    1.5711   13.5889   -7.0052 C   0  0  0  0  0  0  0  0  0  0  0  0
   -0.0317   11.8795   -6.6175 C   0  0  0  0  0  0  0  0  0  0  0  0
   -0.6606   11.3808   -5.3733 O   0  0  0  0  0  0  0  0  0  0  0  0
   -0.9289   10.0060   -5.1489 C   0  0  0  0  0  0  0  0  0  0  0  0
   -1.6239    9.7043   -3.8507 C   0  0  0  0  0  0  0  0  0  0  0  0
   -2.3421    8.4440   -4.0082 N   0  0  0  0  0  0  0  0  0  0  0  0
   -2.9976    8.0177   -2.8709 N   0  0  0  0  0  0  0  0  0  0  0  0
   -4.3643    7.9168   -2.8393 C   0  0  0  0  0  0  0  0  0  0  0  0
   -5.0922    8.2398   -4.1106 C   0  0  0  0  0  0  0  0  0  0  0  0
   -6.2954    7.4403   -4.2979 N   0  0  0  0  0  0  0  0  0  0  0  0
   -6.4081    6.4620   -5.2036 C   0  0  0  0  0  0  0  0  0  0  0  0
   -7.8080    5.9376   -5.3902 C   0  0  0  0  0  0  0  0  0  0  0  0
   -7.9535    4.4320   -5.0842 C   0  0  0  0  0  0  0  0  0  0  0  0
   -9.3923    3.9753   -5.3399 C   0  0  0  0  0  0  0  0  0  0  0  0
   -7.5731    4.1648   -3.6170 C   0  0  0  0  0  0  0  0  0  0  0  0
   -8.1977    6.3295   -6.7304 N   0  0  0  0  0  0  0  0  0  0  0  0
   -8.8595    7.5120   -6.8602 C   0  0  0  0  0  0  0  0  0  0  0  0
   -9.2114    8.0733   -8.2191 C   0  0  0  0  0  0  0  0  0  0  0  0
  -10.3755    9.0480   -8.0876 C   0  0  0  0  0  0  0  0  0  0  0  0
  -10.5755    9.7598   -9.3798 C   0  0  0  0  0  0  0  0  0  0  0  0
   -9.3219   10.4204   -9.7210 N   0  0  0  0  0  0  0  0  0  0  0  0
   -9.1984   11.7763   -9.7218 C   0  0  0  0  0  0  0  0  0  0  0  0
  -10.3631   12.4956   -9.4784 C   0  0  0  0  0  0  0  0  0  0  0  0
  -11.3399   13.1004   -9.3100 C   0  0  0  0  0  0  0  0  0  0  0  0
  -12.6022   13.6823   -9.0265 C   0  0  0  0  0  0  0  0  0  0  0  0
  -13.4651   12.6782   -8.3755 N   0  0  0  0  0  0  0  0  0  0  0  0
  -12.8768   12.0439   -7.1955 C   0  0  0  0  0  0  0  0  0  0  0  0
  -14.8628   13.0483   -8.1960 C   0  0  0  0  0  0  0  0  0  0  0  0
  -12.4242   14.8819   -8.0944 C   0  0  0  0  0  0  0  0  0  0  0  0
  -13.2149   14.1080  -10.3676 C   0  0  0  0  0  0  0  0  0  0  0  0
   -8.1338   12.3289   -9.9307 O   0  0  0  0  0  0  0  0  0  0  0  0
   -8.1798    9.5638   -9.9560 C   0  0  0  0  0  0  0  0  0  0  0  0
   -7.9372    8.7980   -8.6837 C   0  0  0  0  0  0  0  0  0  0  0  0
   -9.1530    8.1719   -5.8536 O   0  0  0  0  0  0  0  0  0  0  0  0
   -7.7249    5.4846   -7.8602 C   0  0  0  0  0  0  0  0  0  0  0  0
   -5.4665    6.0841   -5.8975 O   0  0  0  0  0  0  0  0  0  0  0  0
   -5.5044    9.7330   -4.0151 C   0  0  0  0  0  0  0  0  0  0  0  0
   -5.9968   10.2541   -5.3510 C   0  0  0  0  0  0  0  0  0  0  0  0
   -4.7997   10.4737   -6.2437 C   0  0  0  0  0  0  0  0  0  0  0  0
   -5.2478   11.0637   -7.5149 N   0  0  0  0  0  0  0  0  0  0  0  0
   -6.0430   12.3489   -7.2454 C   0  0  0  0  0  0  0  0  0  0  0  0
   -7.2058   12.0475   -6.3563 C   0  0  0  0  0  0  0  0  0  0  0  0
   -6.7153   11.4689   -5.1348 O   0  0  0  0  0  0  0  0  0  0  0  0
   -4.9873    7.6709   -1.8370 O   0  0  0  0  0  0  0  0  0  0  0  0
   -2.1496    7.7962   -1.7092 C   0  0  0  0  0  0  0  0  0  0  0  0
   -1.3669    9.1092   -1.4282 C   0  0  0  0  0  0  0  0  0  0  0  0
   -0.6392    9.5714   -2.6844 C   0  0  0  0  0  0  0  0  0  0  0  0
   -0.6766    9.0459   -5.9156 O   0  0  0  0  0  0  0  0  0  0  0  0
   -2.1203   11.9606   -9.1574 C   0  0  0  0  0  0  0  0  0  0  0  0
   -2.0948   11.0973  -10.2522 C   0  0  0  0  0  0  0  0  0  0  0  0
   -3.1478   10.1594  -10.4267 C   0  0  0  0  0  0  0  0  0  0  0  0
   -4.1692   10.1463   -9.4961 C   0  0  0  0  0  0  0  0  0  0  0  0
   -4.1886   11.0701   -8.4170 C   0  0  0  0  0  0  0  0  0  0  0  0
   -3.1061   11.9450   -8.2656 C   0  0  0  0  0  0  0  0  0  0  0  0
   -9.5798    7.0985   -9.1204 F   0  0  0  0  0  0  0  0  0  0  0  0
  1  2  1  0  0  0  0
  2  3  1  0  0  0  0
  2  5  1  0  0  0  0
  3  4  1  0  0  0  0
  5  6  4  0  0  0  0
  5 10  4  0  0  0  0
  6  7  4  0  0  0  0
  7  8  4  0  0  0  0
  8  9  4  0  0  0  0
  9 10  4  0  0  0  0
 10 11  1  0  0  0  0
 11 12  4  0  0  0  0
 11 15  4  0  0  0  0
 12 13  1  0  0  0  0
 12 68  4  0  0  0  0
 13 14  1  0  0  0  0
 15 16  1  0  0  0  0
 15 67  4  0  0  0  0
 16 17  1  0  0  0  0
 17 18  1  0  0  0  0
 17 19  1  0  0  0  0
 17 20  1  0  0  0  0
 20 21  1  0  0  0  0
 21 22  1  0  0  0  0
 22 23  1  0  0  0  0
 22 66  2  0  0  0  0
 23 24  1  0  0  0  0
 23 65  1  0  0  0  0
 24 25  1  0  0  0  0
 25 26  1  0  0  0  0
 25 63  1  0  0  0  0
 26 27  1  0  0  0  0
 26 62  2  0  0  0  0
 27 28  1  0  0  0  0
 27 55  1  0  0  0  0
 28 29  1  0  0  0  0
 29 30  1  0  0  0  0
 29 54  2  0  0  0  0
 30 31  1  0  0  0  0
 30 34  1  0  0  0  0
 31 32  1  0  0  0  0
 31 33  1  0  0  0  0
 34 35  1  0  0  0  0
 34 53  1  0  0  0  0
 35 36  1  0  0  0  0
 35 52  2  0  0  0  0
 36 37  1  0  0  0  0
 36 51  1  0  0  0  0
 36 73  1  0  0  0  0
 37 38  1  0  0  0  0
 38 39  1  0  0  0  0
 39 40  1  0  0  0  0
 39 50  1  0  0  0  0
 40 41  1  0  0  0  0
 40 49  2  0  0  0  0
 41 42  1  0  0  0  0
 42 43  1  0  0  0  0
 43 44  1  0  0  0  0
 43 47  1  0  0  0  0
 43 48  1  0  0  0  0
 44 45  1  0  0  0  0
 44 46  1  0  0  0  0
 50 51  1  0  0  0  0
 55 56  1  0  0  0  0
 56 57  1  0  0  0  0
 56 61  1  0  0  0  0
 57 58  1  0  0  0  0
 58 59  1  0  0  0  0
 58 71  1  0  0  0  0
 59 60  1  0  0  0  0
 60 61  1  0  0  0  0
 63 64  1  0  0  0  0
 64 65  1  0  0  0  0
 67 68  4  0  0  0  0
 67 72  4  0  0  0  0
 68 69  4  0  0  0  0
 69 70  4  0  0  0  0
 70 71  4  0  0  0  0
 71 72  4  0  0  0  0
M  END
$$$$
