mol_ETKDG0_151
  PyMOL3.1          3D                             0

 73 79  0  0  0  0  0  0  0  0999 V2000
    0.2526   16.6124  -11.3418 C   0  0  0  0  0  0  0  0  0  0  0  0
    0.0659   15.1178  -11.2420 C   0  0  0  0  0  0  0  0  0  0  0  0
   -0.3946   14.5553  -12.4366 O   0  0  0  0  0  0  0  0  0  0  0  0
   -1.8045   14.4443  -12.5972 C   0  0  0  0  0  0  0  0  0  0  0  0
    1.3212   14.4107  -10.8864 C   0  0  0  0  0  0  0  0  0  0  0  0
    2.4848   14.9806  -11.1758 N   0  0  0  0  0  0  0  0  0  0  0  0
    3.6431   14.3484  -10.9105 C   0  0  0  0  0  0  0  0  0  0  0  0
    3.6529   13.0924  -10.3046 C   0  0  0  0  0  0  0  0  0  0  0  0
    2.4602   12.5148  -10.0014 C   0  0  0  0  0  0  0  0  0  0  0  0
    1.2926   13.1608  -10.3040 C   0  0  0  0  0  0  0  0  0  0  0  0
    0.0410   12.5453   -9.9625 C   0  0  0  0  0  0  0  0  0  0  0  0
   -0.5567   11.5572  -10.6777 N   0  0  0  0  0  0  0  0  0  0  0  0
   -0.0646   10.9047  -11.8974 C   0  0  0  0  0  0  0  0  0  0  0  0
    0.5284    9.5360  -11.5510 C   0  0  0  0  0  0  0  0  0  0  0  0
   -0.7738   12.8958   -8.8921 C   0  0  0  0  0  0  0  0  0  0  0  0
   -0.5818   13.9244   -7.8214 C   0  0  0  0  0  0  0  0  0  0  0  0
    0.1271   13.4110   -6.5410 C   0  0  0  0  0  0  0  0  0  0  0  0
   -0.4980   14.1120   -5.3362 C   0  0  0  0  0  0  0  0  0  0  0  0
    1.6351   13.7435   -6.5844 C   0  0  0  0  0  0  0  0  0  0  0  0
    0.0668   11.9740   -6.3526 C   0  0  0  0  0  0  0  0  0  0  0  0
   -0.6143   11.4268   -5.1964 O   0  0  0  0  0  0  0  0  0  0  0  0
   -0.9007   10.0551   -5.0621 C   0  0  0  0  0  0  0  0  0  0  0  0
   -1.6104    9.7309   -3.7936 C   0  0  0  0  0  0  0  0  0  0  0  0
   -2.3370    8.4861   -3.9820 N   0  0  0  0  0  0  0  0  0  0  0  0
   -3.0108    8.0583   -2.8635 N   0  0  0  0  0  0  0  0  0  0  0  0
   -4.3712    7.9812   -2.8526 C   0  0  0  0  0  0  0  0  0  0  0  0
   -5.0736    8.2976   -4.1384 C   0  0  0  0  0  0  0  0  0  0  0  0
   -6.2674    7.5087   -4.3257 N   0  0  0  0  0  0  0  0  0  0  0  0
   -6.3652    6.5583   -5.2557 C   0  0  0  0  0  0  0  0  0  0  0  0
   -7.7422    5.9917   -5.3705 C   0  0  0  0  0  0  0  0  0  0  0  0
   -7.8048    4.4713   -5.0370 C   0  0  0  0  0  0  0  0  0  0  0  0
   -9.2042    3.9266   -5.2923 C   0  0  0  0  0  0  0  0  0  0  0  0
   -7.4369    4.2469   -3.5666 C   0  0  0  0  0  0  0  0  0  0  0  0
   -8.2652    6.2835   -6.6823 N   0  0  0  0  0  0  0  0  0  0  0  0
   -9.1487    7.3076   -6.7875 C   0  0  0  0  0  0  0  0  0  0  0  0
  -10.0005    7.4296   -8.0146 C   0  0  0  0  0  0  0  0  0  0  0  0
  -11.0037    8.5684   -7.8657 C   0  0  0  0  0  0  0  0  0  0  0  0
  -12.0072    8.5262   -8.9574 C   0  0  0  0  0  0  0  0  0  0  0  0
  -12.5916    7.1797   -9.0177 N   0  0  0  0  0  0  0  0  0  0  0  0
  -13.8863    6.8591   -8.7683 C   0  0  0  0  0  0  0  0  0  0  0  0
  -14.7796    7.8448   -8.3854 C   0  0  0  0  0  0  0  0  0  0  0  0
  -15.6332    8.5333   -8.0729 C   0  0  0  0  0  0  0  0  0  0  0  0
  -16.5835    9.4838   -7.5942 C   0  0  0  0  0  0  0  0  0  0  0  0
  -16.6448    9.4388   -6.1245 N   0  0  0  0  0  0  0  0  0  0  0  0
  -15.3869    9.1821   -5.4343 C   0  0  0  0  0  0  0  0  0  0  0  0
  -17.4633   10.4305   -5.4752 C   0  0  0  0  0  0  0  0  0  0  0  0
  -17.9582    9.0758   -8.1481 C   0  0  0  0  0  0  0  0  0  0  0  0
  -16.1808   10.8862   -8.0900 C   0  0  0  0  0  0  0  0  0  0  0  0
  -14.2727    5.6941   -8.8575 O   0  0  0  0  0  0  0  0  0  0  0  0
  -11.6960    6.0998   -9.2468 C   0  0  0  0  0  0  0  0  0  0  0  0
  -10.7681    6.1145   -8.0941 C   0  0  0  0  0  0  0  0  0  0  0  0
   -9.3235    8.0944   -5.8384 O   0  0  0  0  0  0  0  0  0  0  0  0
   -7.7816    5.4585   -7.8200 C   0  0  0  0  0  0  0  0  0  0  0  0
   -5.4381    6.2130   -5.9724 O   0  0  0  0  0  0  0  0  0  0  0  0
   -5.4922    9.7971   -4.0957 C   0  0  0  0  0  0  0  0  0  0  0  0
   -5.9394   10.2572   -5.4650 C   0  0  0  0  0  0  0  0  0  0  0  0
   -4.7132   10.4869   -6.3070 C   0  0  0  0  0  0  0  0  0  0  0  0
   -5.0964   11.0420   -7.6179 N   0  0  0  0  0  0  0  0  0  0  0  0
   -5.9663   12.2931   -7.4224 C   0  0  0  0  0  0  0  0  0  0  0  0
   -7.1603   11.9622   -6.5983 C   0  0  0  0  0  0  0  0  0  0  0  0
   -6.7236   11.4393   -5.3294 O   0  0  0  0  0  0  0  0  0  0  0  0
   -5.0112    7.7333   -1.8552 O   0  0  0  0  0  0  0  0  0  0  0  0
   -2.1689    7.8109   -1.6889 C   0  0  0  0  0  0  0  0  0  0  0  0
   -1.3885    9.0922   -1.3842 C   0  0  0  0  0  0  0  0  0  0  0  0
   -0.6420    9.5691   -2.6201 C   0  0  0  0  0  0  0  0  0  0  0  0
   -0.6539    9.1138   -5.8672 O   0  0  0  0  0  0  0  0  0  0  0  0
   -1.8575   12.0646   -8.9825 C   0  0  0  0  0  0  0  0  0  0  0  0
   -1.7042   11.2345  -10.0841 C   0  0  0  0  0  0  0  0  0  0  0  0
   -2.7093   10.2818  -10.3734 C   0  0  0  0  0  0  0  0  0  0  0  0
   -3.8211   10.2209   -9.5302 C   0  0  0  0  0  0  0  0  0  0  0  0
   -3.9588   11.1068   -8.4416 C   0  0  0  0  0  0  0  0  0  0  0  0
   -2.9333   12.0135   -8.1792 C   0  0  0  0  0  0  0  0  0  0  0  0
   -9.2205    7.6470   -9.1452 F   0  0  0  0  0  0  0  0  0  0  0  0
  1  2  1  0  0  0  0
  2  3  1  0  0  0  0
  2  5  1  0  0  0  0
  3  4  1  0  0  0  0
  5  6  4  0  0  0  0
  5 10  4  0  0  0  0
  6  7  4  0  0  0  0
  7  8  4  0  0  0  0
  8  9  4  0  0  0  0
  9 10  4  0  0  0  0
 10 11  1  0  0  0  0
 11 12  4  0  0  0  0
 11 15  4  0  0  0  0
 12 13  1  0  0  0  0
 12 68  4  0  0  0  0
 13 14  1  0  0  0  0
 15 16  1  0  0  0  0
 15 67  4  0  0  0  0
 16 17  1  0  0  0  0
 17 18  1  0  0  0  0
 17 19  1  0  0  0  0
 17 20  1  0  0  0  0
 20 21  1  0  0  0  0
 21 22  1  0  0  0  0
 22 23  1  0  0  0  0
 22 66  2  0  0  0  0
 23 24  1  0  0  0  0
 23 65  1  0  0  0  0
 24 25  1  0  0  0  0
 25 26  1  0  0  0  0
 25 63  1  0  0  0  0
 26 27  1  0  0  0  0
 26 62  2  0  0  0  0
 27 28  1  0  0  0  0
 27 55  1  0  0  0  0
 28 29  1  0  0  0  0
 29 30  1  0  0  0  0
 29 54  2  0  0  0  0
 30 31  1  0  0  0  0
 30 34  1  0  0  0  0
 31 32  1  0  0  0  0
 31 33  1  0  0  0  0
 34 35  1  0  0  0  0
 34 53  1  0  0  0  0
 35 36  1  0  0  0  0
 35 52  2  0  0  0  0
 36 37  1  0  0  0  0
 36 51  1  0  0  0  0
 36 73  1  0  0  0  0
 37 38  1  0  0  0  0
 38 39  1  0  0  0  0
 39 40  1  0  0  0  0
 39 50  1  0  0  0  0
 40 41  1  0  0  0  0
 40 49  2  0  0  0  0
 41 42  1  0  0  0  0
 42 43  1  0  0  0  0
 43 44  1  0  0  0  0
 43 47  1  0  0  0  0
 43 48  1  0  0  0  0
 44 45  1  0  0  0  0
 44 46  1  0  0  0  0
 50 51  1  0  0  0  0
 55 56  1  0  0  0  0
 56 57  1  0  0  0  0
 56 61  1  0  0  0  0
 57 58  1  0  0  0  0
 58 59  1  0  0  0  0
 58 71  1  0  0  0  0
 59 60  1  0  0  0  0
 60 61  1  0  0  0  0
 63 64  1  0  0  0  0
 64 65  1  0  0  0  0
 67 68  4  0  0  0  0
 67 72  4  0  0  0  0
 68 69  4  0  0  0  0
 69 70  4  0  0  0  0
 70 71  4  0  0  0  0
 71 72  4  0  0  0  0
M  END
$$$$
