mol_ETKDG5_142
  PyMOL3.1          3D                             0

 73 79  0  0  0  0  0  0  0  0999 V2000
   -0.0054   16.5566  -10.7518 C   0  0  0  0  0  0  0  0  0  0  0  0
   -0.0265   15.1014  -11.1693 C   0  0  0  0  0  0  0  0  0  0  0  0
   -0.1782   14.9097  -12.5556 O   0  0  0  0  0  0  0  0  0  0  0  0
   -1.4755   14.6382  -13.0304 C   0  0  0  0  0  0  0  0  0  0  0  0
    1.2044   14.3980  -10.7891 C   0  0  0  0  0  0  0  0  0  0  0  0
    2.3645   14.9673  -11.0721 N   0  0  0  0  0  0  0  0  0  0  0  0
    3.5133   14.3378  -10.7830 C   0  0  0  0  0  0  0  0  0  0  0  0
    3.5121   13.0919  -10.1608 C   0  0  0  0  0  0  0  0  0  0  0  0
    2.3172   12.5127   -9.8640 C   0  0  0  0  0  0  0  0  0  0  0  0
    1.1637   13.1659  -10.1896 C   0  0  0  0  0  0  0  0  0  0  0  0
   -0.0987   12.5627   -9.8511 C   0  0  0  0  0  0  0  0  0  0  0  0
   -0.7284   11.6140  -10.5968 N   0  0  0  0  0  0  0  0  0  0  0  0
   -0.2691   11.0142  -11.8385 C   0  0  0  0  0  0  0  0  0  0  0  0
    0.3639    9.6495  -11.5529 C   0  0  0  0  0  0  0  0  0  0  0  0
   -0.8869   12.9003   -8.7626 C   0  0  0  0  0  0  0  0  0  0  0  0
   -0.6707   13.8967   -7.6832 C   0  0  0  0  0  0  0  0  0  0  0  0
    0.0923   13.3567   -6.4392 C   0  0  0  0  0  0  0  0  0  0  0  0
   -0.4499   14.0579   -5.1910 C   0  0  0  0  0  0  0  0  0  0  0  0
    1.5978   13.6897   -6.5558 C   0  0  0  0  0  0  0  0  0  0  0  0
    0.0289   11.9488   -6.2811 C   0  0  0  0  0  0  0  0  0  0  0  0
   -0.6830   11.3970   -5.1370 O   0  0  0  0  0  0  0  0  0  0  0  0
   -0.9624   10.0342   -5.0034 C   0  0  0  0  0  0  0  0  0  0  0  0
   -1.7012    9.7164   -3.7514 C   0  0  0  0  0  0  0  0  0  0  0  0
   -2.4037    8.4677   -3.9474 N   0  0  0  0  0  0  0  0  0  0  0  0
   -3.0887    8.0396   -2.8324 N   0  0  0  0  0  0  0  0  0  0  0  0
   -4.4467    7.9471   -2.8292 C   0  0  0  0  0  0  0  0  0  0  0  0
   -5.1536    8.2617   -4.1146 C   0  0  0  0  0  0  0  0  0  0  0  0
   -6.3325    7.4546   -4.3157 N   0  0  0  0  0  0  0  0  0  0  0  0
   -6.4274    6.5021   -5.2448 C   0  0  0  0  0  0  0  0  0  0  0  0
   -7.8173    5.9594   -5.4381 C   0  0  0  0  0  0  0  0  0  0  0  0
   -7.9319    4.4472   -5.1303 C   0  0  0  0  0  0  0  0  0  0  0  0
   -9.3497    3.9640   -5.3971 C   0  0  0  0  0  0  0  0  0  0  0  0
   -7.5614    4.1895   -3.6631 C   0  0  0  0  0  0  0  0  0  0  0  0
   -8.2139    6.3180   -6.7825 N   0  0  0  0  0  0  0  0  0  0  0  0
   -8.9237    7.4630   -6.9577 C   0  0  0  0  0  0  0  0  0  0  0  0
   -9.3512    7.9044   -8.3324 C   0  0  0  0  0  0  0  0  0  0  0  0
  -10.5052    8.8877   -8.2826 C   0  0  0  0  0  0  0  0  0  0  0  0
  -10.8397    9.3045   -9.6559 C   0  0  0  0  0  0  0  0  0  0  0  0
   -9.6422    9.8255  -10.3205 N   0  0  0  0  0  0  0  0  0  0  0  0
   -9.5779   11.0513  -10.8463 C   0  0  0  0  0  0  0  0  0  0  0  0
  -10.6966   11.8702  -10.7146 C   0  0  0  0  0  0  0  0  0  0  0  0
  -11.6137   12.5657  -10.6974 C   0  0  0  0  0  0  0  0  0  0  0  0
  -12.7849   13.3749  -10.5388 C   0  0  0  0  0  0  0  0  0  0  0  0
  -13.9431   12.5252  -10.2120 N   0  0  0  0  0  0  0  0  0  0  0  0
  -13.8279   11.8708   -8.8993 C   0  0  0  0  0  0  0  0  0  0  0  0
  -14.3185   11.5802  -11.2827 C   0  0  0  0  0  0  0  0  0  0  0  0
  -12.5584   14.3883   -9.4032 C   0  0  0  0  0  0  0  0  0  0  0  0
  -13.0287   14.1172  -11.8455 C   0  0  0  0  0  0  0  0  0  0  0  0
   -8.5726   11.4280  -11.4194 O   0  0  0  0  0  0  0  0  0  0  0  0
   -8.4768    8.9722  -10.3784 C   0  0  0  0  0  0  0  0  0  0  0  0
   -8.1404    8.5699   -8.9930 C   0  0  0  0  0  0  0  0  0  0  0  0
   -9.2313    8.1589   -5.9808 O   0  0  0  0  0  0  0  0  0  0  0  0
   -7.7096    5.4533   -7.8902 C   0  0  0  0  0  0  0  0  0  0  0  0
   -5.4828    6.1464   -5.9447 O   0  0  0  0  0  0  0  0  0  0  0  0
   -5.6094    9.7487   -4.0413 C   0  0  0  0  0  0  0  0  0  0  0  0
   -6.0722   10.2364   -5.4015 C   0  0  0  0  0  0  0  0  0  0  0  0
   -4.8401   10.5374   -6.2137 C   0  0  0  0  0  0  0  0  0  0  0  0
   -5.2345   11.0925   -7.5232 N   0  0  0  0  0  0  0  0  0  0  0  0
   -6.1186   12.3026   -7.3460 C   0  0  0  0  0  0  0  0  0  0  0  0
   -7.3318   11.9193   -6.5213 C   0  0  0  0  0  0  0  0  0  0  0  0
   -6.8877   11.3891   -5.2556 O   0  0  0  0  0  0  0  0  0  0  0  0
   -5.0827    7.6995   -1.8372 O   0  0  0  0  0  0  0  0  0  0  0  0
   -2.2644    7.8123   -1.6544 C   0  0  0  0  0  0  0  0  0  0  0  0
   -1.4951    9.1222   -1.3435 C   0  0  0  0  0  0  0  0  0  0  0  0
   -0.7463    9.5874   -2.5679 C   0  0  0  0  0  0  0  0  0  0  0  0
   -0.6856    9.0922   -5.7889 O   0  0  0  0  0  0  0  0  0  0  0  0
   -1.9940   12.1021   -8.8688 C   0  0  0  0  0  0  0  0  0  0  0  0
   -1.8692   11.3075   -9.9975 C   0  0  0  0  0  0  0  0  0  0  0  0
   -2.9107   10.3876  -10.3074 C   0  0  0  0  0  0  0  0  0  0  0  0
   -4.0072   10.3275   -9.4652 C   0  0  0  0  0  0  0  0  0  0  0  0
   -4.1093   11.1737   -8.3469 C   0  0  0  0  0  0  0  0  0  0  0  0
   -3.0719   12.0500   -8.0499 C   0  0  0  0  0  0  0  0  0  0  0  0
   -9.7684    6.8176   -9.0748 F   0  0  0  0  0  0  0  0  0  0  0  0
  1  2  1  0  0  0  0
  2  3  1  0  0  0  0
  2  5  1  0  0  0  0
  3  4  1  0  0  0  0
  5  6  4  0  0  0  0
  5 10  4  0  0  0  0
  6  7  4  0  0  0  0
  7  8  4  0  0  0  0
  8  9  4  0  0  0  0
  9 10  4  0  0  0  0
 10 11  1  0  0  0  0
 11 12  4  0  0  0  0
 11 15  4  0  0  0  0
 12 13  1  0  0  0  0
 12 68  4  0  0  0  0
 13 14  1  0  0  0  0
 15 16  1  0  0  0  0
 15 67  4  0  0  0  0
 16 17  1  0  0  0  0
 17 18  1  0  0  0  0
 17 19  1  0  0  0  0
 17 20  1  0  0  0  0
 20 21  1  0  0  0  0
 21 22  1  0  0  0  0
 22 23  1  0  0  0  0
 22 66  2  0  0  0  0
 23 24  1  0  0  0  0
 23 65  1  0  0  0  0
 24 25  1  0  0  0  0
 25 26  1  0  0  0  0
 25 63  1  0  0  0  0
 26 27  1  0  0  0  0
 26 62  2  0  0  0  0
 27 28  1  0  0  0  0
 27 55  1  0  0  0  0
 28 29  1  0  0  0  0
 29 30  1  0  0  0  0
 29 54  2  0  0  0  0
 30 31  1  0  0  0  0
 30 34  1  0  0  0  0
 31 32  1  0  0  0  0
 31 33  1  0  0  0  0
 34 35  1  0  0  0  0
 34 53  1  0  0  0  0
 35 36  1  0  0  0  0
 35 52  2  0  0  0  0
 36 37  1  0  0  0  0
 36 51  1  0  0  0  0
 36 73  1  0  0  0  0
 37 38  1  0  0  0  0
 38 39  1  0  0  0  0
 39 40  1  0  0  0  0
 39 50  1  0  0  0  0
 40 41  1  0  0  0  0
 40 49  2  0  0  0  0
 41 42  1  0  0  0  0
 42 43  1  0  0  0  0
 43 44  1  0  0  0  0
 43 47  1  0  0  0  0
 43 48  1  0  0  0  0
 44 45  1  0  0  0  0
 44 46  1  0  0  0  0
 50 51  1  0  0  0  0
 55 56  1  0  0  0  0
 56 57  1  0  0  0  0
 56 61  1  0  0  0  0
 57 58  1  0  0  0  0
 58 59  1  0  0  0  0
 58 71  1  0  0  0  0
 59 60  1  0  0  0  0
 60 61  1  0  0  0  0
 63 64  1  0  0  0  0
 64 65  1  0  0  0  0
 67 68  4  0  0  0  0
 67 72  4  0  0  0  0
 68 69  4  0  0  0  0
 69 70  4  0  0  0  0
 70 71  4  0  0  0  0
 71 72  4  0  0  0  0
M  END
$$$$
