mol_ETKDG4_122
  PyMOL3.1          3D                             0

 73 79  0  0  0  0  0  0  0  0999 V2000
   -0.4194   14.7625  -13.5467 C   0  0  0  0  0  0  0  0  0  0  0  0
   -0.3873   14.6097  -12.0328 C   0  0  0  0  0  0  0  0  0  0  0  0
   -0.5935   15.8163  -11.3427 O   0  0  0  0  0  0  0  0  0  0  0  0
   -1.9275   16.1833  -11.0283 C   0  0  0  0  0  0  0  0  0  0  0  0
    0.8973   14.0396  -11.5631 C   0  0  0  0  0  0  0  0  0  0  0  0
    2.0238   14.6026  -11.9707 N   0  0  0  0  0  0  0  0  0  0  0  0
    3.2137   14.0864  -11.5807 C   0  0  0  0  0  0  0  0  0  0  0  0
    3.2825   12.9572  -10.7710 C   0  0  0  0  0  0  0  0  0  0  0  0
    2.1174   12.3781  -10.3643 C   0  0  0  0  0  0  0  0  0  0  0  0
    0.9308   12.9238  -10.7542 C   0  0  0  0  0  0  0  0  0  0  0  0
   -0.2902   12.3412  -10.2897 C   0  0  0  0  0  0  0  0  0  0  0  0
   -0.9729   11.3661  -10.9486 N   0  0  0  0  0  0  0  0  0  0  0  0
   -0.5915   10.6973  -12.2037 C   0  0  0  0  0  0  0  0  0  0  0  0
    0.0283    9.3272  -11.9059 C   0  0  0  0  0  0  0  0  0  0  0  0
   -0.9994   12.7302   -9.1532 C   0  0  0  0  0  0  0  0  0  0  0  0
   -0.7158   13.7729   -8.1100 C   0  0  0  0  0  0  0  0  0  0  0  0
    0.0617   13.2915   -6.8467 C   0  0  0  0  0  0  0  0  0  0  0  0
   -0.4549   14.0549   -5.6215 C   0  0  0  0  0  0  0  0  0  0  0  0
    1.5681   13.6006   -7.0118 C   0  0  0  0  0  0  0  0  0  0  0  0
   -0.0093   11.8723   -6.5955 C   0  0  0  0  0  0  0  0  0  0  0  0
   -0.6681   11.3931   -5.3816 O   0  0  0  0  0  0  0  0  0  0  0  0
   -0.9499   10.0286   -5.1644 C   0  0  0  0  0  0  0  0  0  0  0  0
   -1.6672    9.7466   -3.8834 C   0  0  0  0  0  0  0  0  0  0  0  0
   -2.3728    8.4883   -4.0418 N   0  0  0  0  0  0  0  0  0  0  0  0
   -3.0443    8.0692   -2.9129 N   0  0  0  0  0  0  0  0  0  0  0  0
   -4.4068    7.9695   -2.9037 C   0  0  0  0  0  0  0  0  0  0  0  0
   -5.1298    8.2796   -4.1785 C   0  0  0  0  0  0  0  0  0  0  0  0
   -6.2984    7.4553   -4.3768 N   0  0  0  0  0  0  0  0  0  0  0  0
   -6.3736    6.4785   -5.2948 C   0  0  0  0  0  0  0  0  0  0  0  0
   -7.7278    5.8713   -5.4328 C   0  0  0  0  0  0  0  0  0  0  0  0
   -7.7810    4.3608   -5.0473 C   0  0  0  0  0  0  0  0  0  0  0  0
   -9.1683    3.7960   -5.3242 C   0  0  0  0  0  0  0  0  0  0  0  0
   -7.4519    4.1926   -3.5552 C   0  0  0  0  0  0  0  0  0  0  0  0
   -8.1924    6.0918   -6.7772 N   0  0  0  0  0  0  0  0  0  0  0  0
   -9.1175    7.0667   -6.9734 C   0  0  0  0  0  0  0  0  0  0  0  0
   -9.8027    7.1878   -8.3094 C   0  0  0  0  0  0  0  0  0  0  0  0
  -10.9630    8.1844   -8.2652 C   0  0  0  0  0  0  0  0  0  0  0  0
  -11.7227    8.1371   -9.5459 C   0  0  0  0  0  0  0  0  0  0  0  0
  -12.0892    6.7394   -9.8265 N   0  0  0  0  0  0  0  0  0  0  0  0
  -13.3346    6.2432   -9.8488 C   0  0  0  0  0  0  0  0  0  0  0  0
  -14.3666    7.0394   -9.3730 C   0  0  0  0  0  0  0  0  0  0  0  0
  -15.2711    7.6218   -9.0114 C   0  0  0  0  0  0  0  0  0  0  0  0
  -16.3299    8.4166   -8.4452 C   0  0  0  0  0  0  0  0  0  0  0  0
  -15.7464    9.4945   -7.6180 N   0  0  0  0  0  0  0  0  0  0  0  0
  -14.9518    9.0032   -6.4722 C   0  0  0  0  0  0  0  0  0  0  0  0
  -15.0138   10.5130   -8.3835 C   0  0  0  0  0  0  0  0  0  0  0  0
  -17.2157    7.5301   -7.5683 C   0  0  0  0  0  0  0  0  0  0  0  0
  -17.1387    9.0214   -9.5985 C   0  0  0  0  0  0  0  0  0  0  0  0
  -13.5580    5.0979  -10.2366 O   0  0  0  0  0  0  0  0  0  0  0  0
  -11.0216    5.8073   -9.9496 C   0  0  0  0  0  0  0  0  0  0  0  0
  -10.3863    5.8182   -8.6106 C   0  0  0  0  0  0  0  0  0  0  0  0
   -9.4254    7.8383   -6.0535 O   0  0  0  0  0  0  0  0  0  0  0  0
   -7.5903    5.2440   -7.8560 C   0  0  0  0  0  0  0  0  0  0  0  0
   -5.4120    6.1542   -5.9851 O   0  0  0  0  0  0  0  0  0  0  0  0
   -5.5837    9.7739   -4.0903 C   0  0  0  0  0  0  0  0  0  0  0  0
   -6.0743   10.2762   -5.4283 C   0  0  0  0  0  0  0  0  0  0  0  0
   -4.8818   10.4651   -6.3301 C   0  0  0  0  0  0  0  0  0  0  0  0
   -5.3005   11.0634   -7.6063 N   0  0  0  0  0  0  0  0  0  0  0  0
   -6.0739   12.3693   -7.3425 C   0  0  0  0  0  0  0  0  0  0  0  0
   -7.2416   12.0939   -6.4760 C   0  0  0  0  0  0  0  0  0  0  0  0
   -6.7850   11.5084   -5.2340 O   0  0  0  0  0  0  0  0  0  0  0  0
   -5.0337    7.7156   -1.8942 O   0  0  0  0  0  0  0  0  0  0  0  0
   -2.2035    7.8614   -1.7363 C   0  0  0  0  0  0  0  0  0  0  0  0
   -1.4274    9.1812   -1.4556 C   0  0  0  0  0  0  0  0  0  0  0  0
   -0.6935    9.6441   -2.7035 C   0  0  0  0  0  0  0  0  0  0  0  0
   -0.6848    9.0478   -5.9122 O   0  0  0  0  0  0  0  0  0  0  0  0
   -2.1117   11.9384   -9.1641 C   0  0  0  0  0  0  0  0  0  0  0  0
   -2.0721   11.0916  -10.2713 C   0  0  0  0  0  0  0  0  0  0  0  0
   -3.1356   10.1771  -10.4836 C   0  0  0  0  0  0  0  0  0  0  0  0
   -4.1846   10.1659   -9.5761 C   0  0  0  0  0  0  0  0  0  0  0  0
   -4.2093   11.0658   -8.4871 C   0  0  0  0  0  0  0  0  0  0  0  0
   -3.1169   11.9301   -8.2940 C   0  0  0  0  0  0  0  0  0  0  0  0
   -8.8781    7.5879   -9.2721 F   0  0  0  0  0  0  0  0  0  0  0  0
  1  2  1  0  0  0  0
  2  3  1  0  0  0  0
  2  5  1  0  0  0  0
  3  4  1  0  0  0  0
  5  6  4  0  0  0  0
  5 10  4  0  0  0  0
  6  7  4  0  0  0  0
  7  8  4  0  0  0  0
  8  9  4  0  0  0  0
  9 10  4  0  0  0  0
 10 11  1  0  0  0  0
 11 12  4  0  0  0  0
 11 15  4  0  0  0  0
 12 13  1  0  0  0  0
 12 68  4  0  0  0  0
 13 14  1  0  0  0  0
 15 16  1  0  0  0  0
 15 67  4  0  0  0  0
 16 17  1  0  0  0  0
 17 18  1  0  0  0  0
 17 19  1  0  0  0  0
 17 20  1  0  0  0  0
 20 21  1  0  0  0  0
 21 22  1  0  0  0  0
 22 23  1  0  0  0  0
 22 66  2  0  0  0  0
 23 24  1  0  0  0  0
 23 65  1  0  0  0  0
 24 25  1  0  0  0  0
 25 26  1  0  0  0  0
 25 63  1  0  0  0  0
 26 27  1  0  0  0  0
 26 62  2  0  0  0  0
 27 28  1  0  0  0  0
 27 55  1  0  0  0  0
 28 29  1  0  0  0  0
 29 30  1  0  0  0  0
 29 54  2  0  0  0  0
 30 31  1  0  0  0  0
 30 34  1  0  0  0  0
 31 32  1  0  0  0  0
 31 33  1  0  0  0  0
 34 35  1  0  0  0  0
 34 53  1  0  0  0  0
 35 36  1  0  0  0  0
 35 52  2  0  0  0  0
 36 37  1  0  0  0  0
 36 51  1  0  0  0  0
 36 73  1  0  0  0  0
 37 38  1  0  0  0  0
 38 39  1  0  0  0  0
 39 40  1  0  0  0  0
 39 50  1  0  0  0  0
 40 41  1  0  0  0  0
 40 49  2  0  0  0  0
 41 42  1  0  0  0  0
 42 43  1  0  0  0  0
 43 44  1  0  0  0  0
 43 47  1  0  0  0  0
 43 48  1  0  0  0  0
 44 45  1  0  0  0  0
 44 46  1  0  0  0  0
 50 51  1  0  0  0  0
 55 56  1  0  0  0  0
 56 57  1  0  0  0  0
 56 61  1  0  0  0  0
 57 58  1  0  0  0  0
 58 59  1  0  0  0  0
 58 71  1  0  0  0  0
 59 60  1  0  0  0  0
 60 61  1  0  0  0  0
 63 64  1  0  0  0  0
 64 65  1  0  0  0  0
 67 68  4  0  0  0  0
 67 72  4  0  0  0  0
 68 69  4  0  0  0  0
 69 70  4  0  0  0  0
 70 71  4  0  0  0  0
 71 72  4  0  0  0  0
M  END
$$$$
