mol_ETKDG2_58
  PyMOL3.1          3D                             0

 73 79  0  0  0  0  0  0  0  0999 V2000
    0.0263   15.2271  -13.1088 C   0  0  0  0  0  0  0  0  0  0  0  0
    0.0209   15.0995  -11.5896 C   0  0  0  0  0  0  0  0  0  0  0  0
   -0.1340   16.3271  -10.9129 O   0  0  0  0  0  0  0  0  0  0  0  0
   -1.4375   16.6524  -10.4531 C   0  0  0  0  0  0  0  0  0  0  0  0
    1.2660   14.5015  -11.0919 C   0  0  0  0  0  0  0  0  0  0  0  0
    2.4197   15.0567  -11.4419 N   0  0  0  0  0  0  0  0  0  0  0  0
    3.5822   14.5395  -11.0198 C   0  0  0  0  0  0  0  0  0  0  0  0
    3.6054   13.3946  -10.2158 C   0  0  0  0  0  0  0  0  0  0  0  0
    2.4240   12.8208   -9.8645 C   0  0  0  0  0  0  0  0  0  0  0  0
    1.2529   13.3775  -10.2977 C   0  0  0  0  0  0  0  0  0  0  0  0
    0.0052   12.7795   -9.9053 C   0  0  0  0  0  0  0  0  0  0  0  0
   -0.6346   11.8343  -10.6311 N   0  0  0  0  0  0  0  0  0  0  0  0
   -0.1856   11.2118  -11.8849 C   0  0  0  0  0  0  0  0  0  0  0  0
    0.4312    9.8468  -11.5791 C   0  0  0  0  0  0  0  0  0  0  0  0
   -0.7715   13.1149   -8.7934 C   0  0  0  0  0  0  0  0  0  0  0  0
   -0.5349   14.0967   -7.6973 C   0  0  0  0  0  0  0  0  0  0  0  0
    0.1610   13.5219   -6.4288 C   0  0  0  0  0  0  0  0  0  0  0  0
   -0.4335   14.2084   -5.1951 C   0  0  0  0  0  0  0  0  0  0  0  0
    1.6787   13.8390   -6.4814 C   0  0  0  0  0  0  0  0  0  0  0  0
    0.0761   12.0961   -6.2848 C   0  0  0  0  0  0  0  0  0  0  0  0
   -0.6324   11.5237   -5.1409 O   0  0  0  0  0  0  0  0  0  0  0  0
   -0.8978   10.1466   -5.0180 C   0  0  0  0  0  0  0  0  0  0  0  0
   -1.6388    9.7956   -3.7696 C   0  0  0  0  0  0  0  0  0  0  0  0
   -2.3493    8.5441   -4.0028 N   0  0  0  0  0  0  0  0  0  0  0  0
   -3.0362    8.0801   -2.9031 N   0  0  0  0  0  0  0  0  0  0  0  0
   -4.3990    7.9867   -2.9055 C   0  0  0  0  0  0  0  0  0  0  0  0
   -5.1062    8.3363   -4.1874 C   0  0  0  0  0  0  0  0  0  0  0  0
   -6.2904    7.5280   -4.4023 N   0  0  0  0  0  0  0  0  0  0  0  0
   -6.3772    6.5588   -5.3083 C   0  0  0  0  0  0  0  0  0  0  0  0
   -7.7417    5.9756   -5.4826 C   0  0  0  0  0  0  0  0  0  0  0  0
   -7.8450    4.4649   -5.1160 C   0  0  0  0  0  0  0  0  0  0  0  0
   -9.2618    3.9635   -5.3880 C   0  0  0  0  0  0  0  0  0  0  0  0
   -7.5061    4.2643   -3.6290 C   0  0  0  0  0  0  0  0  0  0  0  0
   -8.1642    6.2034   -6.8431 N   0  0  0  0  0  0  0  0  0  0  0  0
   -9.0554    7.1992   -7.0698 C   0  0  0  0  0  0  0  0  0  0  0  0
   -9.6659    7.3261   -8.4407 C   0  0  0  0  0  0  0  0  0  0  0  0
  -10.4836    8.5877   -8.6206 C   0  0  0  0  0  0  0  0  0  0  0  0
  -11.0605    8.5678   -9.9823 C   0  0  0  0  0  0  0  0  0  0  0  0
  -11.8262    7.3275  -10.1732 N   0  0  0  0  0  0  0  0  0  0  0  0
  -13.1196    7.3027  -10.5153 C   0  0  0  0  0  0  0  0  0  0  0  0
  -13.7554    8.5168  -10.6770 C   0  0  0  0  0  0  0  0  0  0  0  0
  -14.3883    9.4393  -10.8381 C   0  0  0  0  0  0  0  0  0  0  0  0
  -15.0587   10.7012  -10.9407 C   0  0  0  0  0  0  0  0  0  0  0  0
  -16.1492   10.7211   -9.9416 N   0  0  0  0  0  0  0  0  0  0  0  0
  -15.6652   10.5063   -8.5516 C   0  0  0  0  0  0  0  0  0  0  0  0
  -17.2602    9.8022  -10.2854 C   0  0  0  0  0  0  0  0  0  0  0  0
  -14.0660   11.8539  -10.6504 C   0  0  0  0  0  0  0  0  0  0  0  0
  -15.5915   10.8288  -12.3616 C   0  0  0  0  0  0  0  0  0  0  0  0
  -13.7230    6.2538  -10.6575 O   0  0  0  0  0  0  0  0  0  0  0  0
  -11.1522    6.0734   -9.9532 C   0  0  0  0  0  0  0  0  0  0  0  0
  -10.5883    6.1244   -8.5876 C   0  0  0  0  0  0  0  0  0  0  0  0
   -9.3947    7.9674   -6.1621 O   0  0  0  0  0  0  0  0  0  0  0  0
   -7.5698    5.3275   -7.8950 C   0  0  0  0  0  0  0  0  0  0  0  0
   -5.4080    6.2137   -5.9849 O   0  0  0  0  0  0  0  0  0  0  0  0
   -5.5456    9.8188   -4.0842 C   0  0  0  0  0  0  0  0  0  0  0  0
   -5.9788   10.3460   -5.4370 C   0  0  0  0  0  0  0  0  0  0  0  0
   -4.7453   10.6529   -6.2363 C   0  0  0  0  0  0  0  0  0  0  0  0
   -5.1179   11.2873   -7.5105 N   0  0  0  0  0  0  0  0  0  0  0  0
   -5.9721   12.5221   -7.2558 C   0  0  0  0  0  0  0  0  0  0  0  0
   -7.1983   12.1222   -6.4798 C   0  0  0  0  0  0  0  0  0  0  0  0
   -6.7813   11.5170   -5.2417 O   0  0  0  0  0  0  0  0  0  0  0  0
   -5.0404    7.7140   -1.9183 O   0  0  0  0  0  0  0  0  0  0  0  0
   -2.2180    7.8187   -1.7258 C   0  0  0  0  0  0  0  0  0  0  0  0
   -1.4553    9.1233   -1.3714 C   0  0  0  0  0  0  0  0  0  0  0  0
   -0.6878    9.6216   -2.5828 C   0  0  0  0  0  0  0  0  0  0  0  0
   -0.6019    9.2273   -5.8187 O   0  0  0  0  0  0  0  0  0  0  0  0
   -1.8816   12.3157   -8.8831 C   0  0  0  0  0  0  0  0  0  0  0  0
   -1.7705   11.5241  -10.0148 C   0  0  0  0  0  0  0  0  0  0  0  0
   -2.8080   10.6008  -10.3169 C   0  0  0  0  0  0  0  0  0  0  0  0
   -3.8946   10.5322   -9.4636 C   0  0  0  0  0  0  0  0  0  0  0  0
   -3.9987   11.3782   -8.3301 C   0  0  0  0  0  0  0  0  0  0  0  0
   -2.9514   12.2559   -8.0507 C   0  0  0  0  0  0  0  0  0  0  0  0
   -8.6689    7.3477   -9.4021 F   0  0  0  0  0  0  0  0  0  0  0  0
  1  2  1  0  0  0  0
  2  3  1  0  0  0  0
  2  5  1  0  0  0  0
  3  4  1  0  0  0  0
  5  6  4  0  0  0  0
  5 10  4  0  0  0  0
  6  7  4  0  0  0  0
  7  8  4  0  0  0  0
  8  9  4  0  0  0  0
  9 10  4  0  0  0  0
 10 11  1  0  0  0  0
 11 12  4  0  0  0  0
 11 15  4  0  0  0  0
 12 13  1  0  0  0  0
 12 68  4  0  0  0  0
 13 14  1  0  0  0  0
 15 16  1  0  0  0  0
 15 67  4  0  0  0  0
 16 17  1  0  0  0  0
 17 18  1  0  0  0  0
 17 19  1  0  0  0  0
 17 20  1  0  0  0  0
 20 21  1  0  0  0  0
 21 22  1  0  0  0  0
 22 23  1  0  0  0  0
 22 66  2  0  0  0  0
 23 24  1  0  0  0  0
 23 65  1  0  0  0  0
 24 25  1  0  0  0  0
 25 26  1  0  0  0  0
 25 63  1  0  0  0  0
 26 27  1  0  0  0  0
 26 62  2  0  0  0  0
 27 28  1  0  0  0  0
 27 55  1  0  0  0  0
 28 29  1  0  0  0  0
 29 30  1  0  0  0  0
 29 54  2  0  0  0  0
 30 31  1  0  0  0  0
 30 34  1  0  0  0  0
 31 32  1  0  0  0  0
 31 33  1  0  0  0  0
 34 35  1  0  0  0  0
 34 53  1  0  0  0  0
 35 36  1  0  0  0  0
 35 52  2  0  0  0  0
 36 37  1  0  0  0  0
 36 51  1  0  0  0  0
 36 73  1  0  0  0  0
 37 38  1  0  0  0  0
 38 39  1  0  0  0  0
 39 40  1  0  0  0  0
 39 50  1  0  0  0  0
 40 41  1  0  0  0  0
 40 49  2  0  0  0  0
 41 42  1  0  0  0  0
 42 43  1  0  0  0  0
 43 44  1  0  0  0  0
 43 47  1  0  0  0  0
 43 48  1  0  0  0  0
 44 45  1  0  0  0  0
 44 46  1  0  0  0  0
 50 51  1  0  0  0  0
 55 56  1  0  0  0  0
 56 57  1  0  0  0  0
 56 61  1  0  0  0  0
 57 58  1  0  0  0  0
 58 59  1  0  0  0  0
 58 71  1  0  0  0  0
 59 60  1  0  0  0  0
 60 61  1  0  0  0  0
 63 64  1  0  0  0  0
 64 65  1  0  0  0  0
 67 68  4  0  0  0  0
 67 72  4  0  0  0  0
 68 69  4  0  0  0  0
 69 70  4  0  0  0  0
 70 71  4  0  0  0  0
 71 72  4  0  0  0  0
M  END
$$$$
