mol_bioactive_23
  PyMOL3.1          3D                             0

 73 79  0  0  0  0  0  0  0  0999 V2000
   -0.4391   14.7769  -12.9920 C   0  0  0  0  0  0  0  0  0  0  0  0
   -0.2669   14.8611  -11.4807 C   0  0  0  0  0  0  0  0  0  0  0  0
   -0.3187   16.1537  -10.9563 O   0  0  0  0  0  0  0  0  0  0  0  0
   -1.5963   16.6490  -10.5608 C   0  0  0  0  0  0  0  0  0  0  0  0
    1.0089   14.2476  -11.0633 C   0  0  0  0  0  0  0  0  0  0  0  0
    2.1355   14.8632  -11.3859 N   0  0  0  0  0  0  0  0  0  0  0  0
    3.3233   14.3242  -11.0516 C   0  0  0  0  0  0  0  0  0  0  0  0
    3.3898   13.1025  -10.3657 C   0  0  0  0  0  0  0  0  0  0  0  0
    2.2294   12.4695  -10.0409 C   0  0  0  0  0  0  0  0  0  0  0  0
    1.0374   13.0394  -10.3893 C   0  0  0  0  0  0  0  0  0  0  0  0
   -0.1913   12.4041  -10.0043 C   0  0  0  0  0  0  0  0  0  0  0  0
   -0.7709   11.3835  -10.6902 N   0  0  0  0  0  0  0  0  0  0  0  0
   -0.2790   10.7136  -11.8988 C   0  0  0  0  0  0  0  0  0  0  0  0
    0.4221    9.4035  -11.5236 C   0  0  0  0  0  0  0  0  0  0  0  0
   -0.9961   12.7693   -8.9444 C   0  0  0  0  0  0  0  0  0  0  0  0
   -0.8082   13.8214   -7.9139 C   0  0  0  0  0  0  0  0  0  0  0  0
   -0.0791   13.3618   -6.6186 C   0  0  0  0  0  0  0  0  0  0  0  0
   -0.7417   14.0580   -5.4302 C   0  0  0  0  0  0  0  0  0  0  0  0
    1.4084   13.7793   -6.6726 C   0  0  0  0  0  0  0  0  0  0  0  0
   -0.0635   11.9414   -6.4059 C   0  0  0  0  0  0  0  0  0  0  0  0
   -0.7406   11.3972   -5.2457 O   0  0  0  0  0  0  0  0  0  0  0  0
   -1.0114   10.0292   -5.0889 C   0  0  0  0  0  0  0  0  0  0  0  0
   -1.7322    9.7136   -3.8226 C   0  0  0  0  0  0  0  0  0  0  0  0
   -2.4557    8.4676   -4.0120 N   0  0  0  0  0  0  0  0  0  0  0  0
   -3.1347    8.0458   -2.8970 N   0  0  0  0  0  0  0  0  0  0  0  0
   -4.4967    7.9701   -2.8899 C   0  0  0  0  0  0  0  0  0  0  0  0
   -5.2190    8.3428   -4.1635 C   0  0  0  0  0  0  0  0  0  0  0  0
   -6.4156    7.5374   -4.3931 N   0  0  0  0  0  0  0  0  0  0  0  0
   -6.5024    6.5304   -5.2766 C   0  0  0  0  0  0  0  0  0  0  0  0
   -7.8781    5.9549   -5.4201 C   0  0  0  0  0  0  0  0  0  0  0  0
   -7.9733    4.4459   -5.0572 C   0  0  0  0  0  0  0  0  0  0  0  0
   -9.4048    3.9550   -5.2772 C   0  0  0  0  0  0  0  0  0  0  0  0
   -7.5774    4.2387   -3.5912 C   0  0  0  0  0  0  0  0  0  0  0  0
   -8.3513    6.2150   -6.7584 N   0  0  0  0  0  0  0  0  0  0  0  0
   -9.2111    7.2533   -6.9413 C   0  0  0  0  0  0  0  0  0  0  0  0
   -9.8646    7.4564   -8.2832 C   0  0  0  0  0  0  0  0  0  0  0  0
  -10.7211    6.2603   -8.5551 C   0  0  0  0  0  0  0  0  0  0  0  0
  -11.3075    6.3785   -9.9074 C   0  0  0  0  0  0  0  0  0  0  0  0
  -12.1308    7.5537   -9.9047 N   0  0  0  0  0  0  0  0  0  0  0  0
  -13.4417    7.3668  -10.1702 C   0  0  0  0  0  0  0  0  0  0  0  0
  -14.3388    8.4101   -9.9936 C   0  0  0  0  0  0  0  0  0  0  0  0
  -15.2094    9.1211   -9.9090 C   0  0  0  0  0  0  0  0  0  0  0  0
  -16.2108   10.1185   -9.6724 C   0  0  0  0  0  0  0  0  0  0  0  0
  -17.3528    9.4595   -8.9929 N   0  0  0  0  0  0  0  0  0  0  0  0
  -16.9781    8.8621   -7.6881 C   0  0  0  0  0  0  0  0  0  0  0  0
  -18.0669    8.4861   -9.8428 C   0  0  0  0  0  0  0  0  0  0  0  0
  -15.6404   11.2372   -8.7739 C   0  0  0  0  0  0  0  0  0  0  0  0
  -16.6120   10.6997  -11.0286 C   0  0  0  0  0  0  0  0  0  0  0  0
  -13.8554    6.2813  -10.5365 O   0  0  0  0  0  0  0  0  0  0  0  0
  -11.4831    8.8340   -9.5700 C   0  0  0  0  0  0  0  0  0  0  0  0
  -10.7654    8.7101   -8.2857 C   0  0  0  0  0  0  0  0  0  0  0  0
   -9.4807    8.0179   -5.9996 O   0  0  0  0  0  0  0  0  0  0  0  0
   -7.8283    5.3417   -7.8532 C   0  0  0  0  0  0  0  0  0  0  0  0
   -5.5447    6.1584   -5.9522 O   0  0  0  0  0  0  0  0  0  0  0  0
   -5.6063    9.8404   -4.0186 C   0  0  0  0  0  0  0  0  0  0  0  0
   -5.7312   10.6582   -5.2793 C   0  0  0  0  0  0  0  0  0  0  0  0
   -5.1509   10.0337   -6.5315 C   0  0  0  0  0  0  0  0  0  0  0  0
   -5.3849   10.8722   -7.6968 N   0  0  0  0  0  0  0  0  0  0  0  0
   -6.1931   12.1338   -7.4575 C   0  0  0  0  0  0  0  0  0  0  0  0
   -7.3463   11.8731   -6.5844 C   0  0  0  0  0  0  0  0  0  0  0  0
   -7.1055   10.9707   -5.5011 O   0  0  0  0  0  0  0  0  0  0  0  0
   -5.1304    7.7169   -1.8879 O   0  0  0  0  0  0  0  0  0  0  0  0
   -2.3031    7.8207   -1.7139 C   0  0  0  0  0  0  0  0  0  0  0  0
   -1.5102    9.1233   -1.4170 C   0  0  0  0  0  0  0  0  0  0  0  0
   -0.7637    9.5741   -2.6454 C   0  0  0  0  0  0  0  0  0  0  0  0
   -0.7396    9.0796   -5.8732 O   0  0  0  0  0  0  0  0  0  0  0  0
   -2.0721   11.9225   -9.0134 C   0  0  0  0  0  0  0  0  0  0  0  0
   -1.9018   11.0639  -10.0873 C   0  0  0  0  0  0  0  0  0  0  0  0
   -2.8948   10.0853  -10.3523 C   0  0  0  0  0  0  0  0  0  0  0  0
   -4.0102   10.0280   -9.5187 C   0  0  0  0  0  0  0  0  0  0  0  0
   -4.1807   10.9450   -8.4664 C   0  0  0  0  0  0  0  0  0  0  0  0
   -3.1636   11.8774   -8.2185 C   0  0  0  0  0  0  0  0  0  0  0  0
   -8.8784    7.6477   -9.2478 F   0  0  0  0  0  0  0  0  0  0  0  0
  1  2  1  0  0  0  0
  2  3  1  0  0  0  0
  2  5  1  0  0  0  0
  3  4  1  0  0  0  0
  5  6  4  0  0  0  0
  5 10  4  0  0  0  0
  6  7  4  0  0  0  0
  7  8  4  0  0  0  0
  8  9  4  0  0  0  0
  9 10  4  0  0  0  0
 10 11  1  0  0  0  0
 11 12  4  0  0  0  0
 11 15  4  0  0  0  0
 12 13  1  0  0  0  0
 12 68  4  0  0  0  0
 13 14  1  0  0  0  0
 15 16  1  0  0  0  0
 15 67  4  0  0  0  0
 16 17  1  0  0  0  0
 17 18  1  0  0  0  0
 17 19  1  0  0  0  0
 17 20  1  0  0  0  0
 20 21  1  0  0  0  0
 21 22  1  0  0  0  0
 22 23  1  0  0  0  0
 22 66  2  0  0  0  0
 23 24  1  0  0  0  0
 23 65  1  0  0  0  0
 24 25  1  0  0  0  0
 25 26  1  0  0  0  0
 25 63  1  0  0  0  0
 26 27  1  0  0  0  0
 26 62  2  0  0  0  0
 27 28  1  0  0  0  0
 27 55  1  0  0  0  0
 28 29  1  0  0  0  0
 29 30  1  0  0  0  0
 29 54  2  0  0  0  0
 30 31  1  0  0  0  0
 30 34  1  0  0  0  0
 31 32  1  0  0  0  0
 31 33  1  0  0  0  0
 34 35  1  0  0  0  0
 34 53  1  0  0  0  0
 35 36  1  0  0  0  0
 35 52  2  0  0  0  0
 36 37  1  0  0  0  0
 36 51  1  0  0  0  0
 36 73  1  0  0  0  0
 37 38  1  0  0  0  0
 38 39  1  0  0  0  0
 39 40  1  0  0  0  0
 39 50  1  0  0  0  0
 40 41  1  0  0  0  0
 40 49  2  0  0  0  0
 41 42  1  0  0  0  0
 42 43  1  0  0  0  0
 43 44  1  0  0  0  0
 43 47  1  0  0  0  0
 43 48  1  0  0  0  0
 44 45  1  0  0  0  0
 44 46  1  0  0  0  0
 50 51  1  0  0  0  0
 55 56  1  0  0  0  0
 56 57  1  0  0  0  0
 56 61  1  0  0  0  0
 57 58  1  0  0  0  0
 58 59  1  0  0  0  0
 58 71  1  0  0  0  0
 59 60  1  0  0  0  0
 60 61  1  0  0  0  0
 63 64  1  0  0  0  0
 64 65  1  0  0  0  0
 67 68  4  0  0  0  0
 67 72  4  0  0  0  0
 68 69  4  0  0  0  0
 69 70  4  0  0  0  0
 70 71  4  0  0  0  0
 71 72  4  0  0  0  0
M  END
$$$$
