mol_ETKDG4_105
  PyMOL3.1          3D                             0

 73 79  0  0  0  0  0  0  0  0999 V2000
    0.0246   15.0354  -13.1245 C   0  0  0  0  0  0  0  0  0  0  0  0
    0.0111   14.9114  -11.6080 C   0  0  0  0  0  0  0  0  0  0  0  0
   -0.1741   16.1325  -10.9371 O   0  0  0  0  0  0  0  0  0  0  0  0
   -1.4925   16.5250  -10.6155 C   0  0  0  0  0  0  0  0  0  0  0  0
    1.2631   14.3396  -11.0953 C   0  0  0  0  0  0  0  0  0  0  0  0
    2.4005   14.9419  -11.4016 N   0  0  0  0  0  0  0  0  0  0  0  0
    3.5722   14.4272  -10.9672 C   0  0  0  0  0  0  0  0  0  0  0  0
    3.6086   13.2654  -10.2096 C   0  0  0  0  0  0  0  0  0  0  0  0
    2.4290   12.6477   -9.9034 C   0  0  0  0  0  0  0  0  0  0  0  0
    1.2594   13.1856  -10.3409 C   0  0  0  0  0  0  0  0  0  0  0  0
    0.0237   12.5546   -9.9797 C   0  0  0  0  0  0  0  0  0  0  0  0
   -0.5551   11.5441  -10.6725 N   0  0  0  0  0  0  0  0  0  0  0  0
   -0.0304   10.8677  -11.8617 C   0  0  0  0  0  0  0  0  0  0  0  0
    0.5169    9.4989  -11.4556 C   0  0  0  0  0  0  0  0  0  0  0  0
   -0.7962   12.9089   -8.9192 C   0  0  0  0  0  0  0  0  0  0  0  0
   -0.6291   13.9442   -7.8645 C   0  0  0  0  0  0  0  0  0  0  0  0
    0.0396   13.4505   -6.5516 C   0  0  0  0  0  0  0  0  0  0  0  0
   -0.6400   14.1349   -5.3721 C   0  0  0  0  0  0  0  0  0  0  0  0
    1.5290   13.8351   -6.5603 C   0  0  0  0  0  0  0  0  0  0  0  0
    0.0104   12.0152   -6.3576 C   0  0  0  0  0  0  0  0  0  0  0  0
   -0.6692   11.4596   -5.2018 O   0  0  0  0  0  0  0  0  0  0  0  0
   -0.9586   10.0838   -5.0815 C   0  0  0  0  0  0  0  0  0  0  0  0
   -1.6886    9.7438   -3.8271 C   0  0  0  0  0  0  0  0  0  0  0  0
   -2.3797    8.4781   -4.0238 N   0  0  0  0  0  0  0  0  0  0  0  0
   -3.0674    8.0407   -2.9147 N   0  0  0  0  0  0  0  0  0  0  0  0
   -4.4287    7.9428   -2.9244 C   0  0  0  0  0  0  0  0  0  0  0  0
   -5.1373    8.2284   -4.2139 C   0  0  0  0  0  0  0  0  0  0  0  0
   -6.3298    7.4392   -4.3925 N   0  0  0  0  0  0  0  0  0  0  0  0
   -6.4527    6.4573   -5.3056 C   0  0  0  0  0  0  0  0  0  0  0  0
   -7.8313    5.9022   -5.4101 C   0  0  0  0  0  0  0  0  0  0  0  0
   -7.9297    4.3951   -5.0448 C   0  0  0  0  0  0  0  0  0  0  0  0
   -9.3628    3.9116   -5.2273 C   0  0  0  0  0  0  0  0  0  0  0  0
   -7.5037    4.1872   -3.5870 C   0  0  0  0  0  0  0  0  0  0  0  0
   -8.3462    6.1559   -6.7342 N   0  0  0  0  0  0  0  0  0  0  0  0
   -9.1860    7.2089   -6.8918 C   0  0  0  0  0  0  0  0  0  0  0  0
   -9.9411    7.3800   -8.1794 C   0  0  0  0  0  0  0  0  0  0  0  0
  -10.6707    8.7141   -8.2361 C   0  0  0  0  0  0  0  0  0  0  0  0
  -11.4899    8.7661   -9.4628 C   0  0  0  0  0  0  0  0  0  0  0  0
  -12.3673    7.5856   -9.5116 N   0  0  0  0  0  0  0  0  0  0  0  0
  -13.7061    7.6369   -9.5146 C   0  0  0  0  0  0  0  0  0  0  0  0
  -14.3288    8.8499   -9.2566 C   0  0  0  0  0  0  0  0  0  0  0  0
  -14.9820    9.7372   -9.0467 C   0  0  0  0  0  0  0  0  0  0  0  0
  -15.6805   10.9077   -8.6412 C   0  0  0  0  0  0  0  0  0  0  0  0
  -16.3944   10.5809   -7.4039 N   0  0  0  0  0  0  0  0  0  0  0  0
  -15.6362    9.8430   -6.4083 C   0  0  0  0  0  0  0  0  0  0  0  0
  -17.3199   11.5158   -6.8891 C   0  0  0  0  0  0  0  0  0  0  0  0
  -14.7043   12.0818   -8.4010 C   0  0  0  0  0  0  0  0  0  0  0  0
  -16.6566   11.2532   -9.7605 C   0  0  0  0  0  0  0  0  0  0  0  0
  -14.3755    6.6345   -9.6991 O   0  0  0  0  0  0  0  0  0  0  0  0
  -11.7368    6.2916   -9.4713 C   0  0  0  0  0  0  0  0  0  0  0  0
  -10.9549    6.2457   -8.2107 C   0  0  0  0  0  0  0  0  0  0  0  0
   -9.3749    8.0021   -5.9622 O   0  0  0  0  0  0  0  0  0  0  0  0
   -7.9055    5.2461   -7.8315 C   0  0  0  0  0  0  0  0  0  0  0  0
   -5.5205    6.1023   -6.0138 O   0  0  0  0  0  0  0  0  0  0  0  0
   -5.5626    9.7244   -4.1780 C   0  0  0  0  0  0  0  0  0  0  0  0
   -5.9877   10.1891   -5.5469 C   0  0  0  0  0  0  0  0  0  0  0  0
   -4.7497   10.4416   -6.3627 C   0  0  0  0  0  0  0  0  0  0  0  0
   -5.1068   11.0059   -7.6726 N   0  0  0  0  0  0  0  0  0  0  0  0
   -5.9790   12.2533   -7.4733 C   0  0  0  0  0  0  0  0  0  0  0  0
   -7.1936   11.8993   -6.6917 C   0  0  0  0  0  0  0  0  0  0  0  0
   -6.7812   11.3617   -5.4154 O   0  0  0  0  0  0  0  0  0  0  0  0
   -5.0684    7.7013   -1.9226 O   0  0  0  0  0  0  0  0  0  0  0  0
   -2.2423    7.8213   -1.7289 C   0  0  0  0  0  0  0  0  0  0  0  0
   -1.4860    9.1414   -1.4173 C   0  0  0  0  0  0  0  0  0  0  0  0
   -0.7325    9.6202   -2.6432 C   0  0  0  0  0  0  0  0  0  0  0  0
   -0.6968    9.1530   -5.8819 O   0  0  0  0  0  0  0  0  0  0  0  0
   -1.8673   12.0633   -9.0016 C   0  0  0  0  0  0  0  0  0  0  0  0
   -1.6958   11.2152  -10.0842 C   0  0  0  0  0  0  0  0  0  0  0  0
   -2.6887   10.2399  -10.3658 C   0  0  0  0  0  0  0  0  0  0  0  0
   -3.7992   10.1726   -9.5426 C   0  0  0  0  0  0  0  0  0  0  0  0
   -3.9591   11.0750   -8.4725 C   0  0  0  0  0  0  0  0  0  0  0  0
   -2.9451   12.0077   -8.2133 C   0  0  0  0  0  0  0  0  0  0  0  0
   -9.0800    7.3283   -9.2656 F   0  0  0  0  0  0  0  0  0  0  0  0
  1  2  1  0  0  0  0
  2  3  1  0  0  0  0
  2  5  1  0  0  0  0
  3  4  1  0  0  0  0
  5  6  4  0  0  0  0
  5 10  4  0  0  0  0
  6  7  4  0  0  0  0
  7  8  4  0  0  0  0
  8  9  4  0  0  0  0
  9 10  4  0  0  0  0
 10 11  1  0  0  0  0
 11 12  4  0  0  0  0
 11 15  4  0  0  0  0
 12 13  1  0  0  0  0
 12 68  4  0  0  0  0
 13 14  1  0  0  0  0
 15 16  1  0  0  0  0
 15 67  4  0  0  0  0
 16 17  1  0  0  0  0
 17 18  1  0  0  0  0
 17 19  1  0  0  0  0
 17 20  1  0  0  0  0
 20 21  1  0  0  0  0
 21 22  1  0  0  0  0
 22 23  1  0  0  0  0
 22 66  2  0  0  0  0
 23 24  1  0  0  0  0
 23 65  1  0  0  0  0
 24 25  1  0  0  0  0
 25 26  1  0  0  0  0
 25 63  1  0  0  0  0
 26 27  1  0  0  0  0
 26 62  2  0  0  0  0
 27 28  1  0  0  0  0
 27 55  1  0  0  0  0
 28 29  1  0  0  0  0
 29 30  1  0  0  0  0
 29 54  2  0  0  0  0
 30 31  1  0  0  0  0
 30 34  1  0  0  0  0
 31 32  1  0  0  0  0
 31 33  1  0  0  0  0
 34 35  1  0  0  0  0
 34 53  1  0  0  0  0
 35 36  1  0  0  0  0
 35 52  2  0  0  0  0
 36 37  1  0  0  0  0
 36 51  1  0  0  0  0
 36 73  1  0  0  0  0
 37 38  1  0  0  0  0
 38 39  1  0  0  0  0
 39 40  1  0  0  0  0
 39 50  1  0  0  0  0
 40 41  1  0  0  0  0
 40 49  2  0  0  0  0
 41 42  1  0  0  0  0
 42 43  1  0  0  0  0
 43 44  1  0  0  0  0
 43 47  1  0  0  0  0
 43 48  1  0  0  0  0
 44 45  1  0  0  0  0
 44 46  1  0  0  0  0
 50 51  1  0  0  0  0
 55 56  1  0  0  0  0
 56 57  1  0  0  0  0
 56 61  1  0  0  0  0
 57 58  1  0  0  0  0
 58 59  1  0  0  0  0
 58 71  1  0  0  0  0
 59 60  1  0  0  0  0
 60 61  1  0  0  0  0
 63 64  1  0  0  0  0
 64 65  1  0  0  0  0
 67 68  4  0  0  0  0
 67 72  4  0  0  0  0
 68 69  4  0  0  0  0
 69 70  4  0  0  0  0
 70 71  4  0  0  0  0
 71 72  4  0  0  0  0
M  END
$$$$
