mol_bioactive_24
  PyMOL3.1          3D                             0

 73 79  0  0  0  0  0  0  0  0999 V2000
   -0.3567   14.8052  -13.2278 C   0  0  0  0  0  0  0  0  0  0  0  0
   -0.2873   14.8150  -11.7094 C   0  0  0  0  0  0  0  0  0  0  0  0
   -0.4024   16.0783  -11.1261 O   0  0  0  0  0  0  0  0  0  0  0  0
   -1.6945   16.5308  -10.7590 C   0  0  0  0  0  0  0  0  0  0  0  0
    0.9804   14.2240  -11.2346 C   0  0  0  0  0  0  0  0  0  0  0  0
    2.1186   14.7958  -11.5964 N   0  0  0  0  0  0  0  0  0  0  0  0
    3.2921   14.2768  -11.1935 C   0  0  0  0  0  0  0  0  0  0  0  0
    3.3360   13.1191  -10.4031 C   0  0  0  0  0  0  0  0  0  0  0  0
    2.1707   12.5262  -10.0464 C   0  0  0  0  0  0  0  0  0  0  0  0
    0.9926   13.0790  -10.4606 C   0  0  0  0  0  0  0  0  0  0  0  0
   -0.2423   12.4824  -10.0428 C   0  0  0  0  0  0  0  0  0  0  0  0
   -0.8738   11.4924  -10.7226 N   0  0  0  0  0  0  0  0  0  0  0  0
   -0.4478   10.8315  -11.9598 C   0  0  0  0  0  0  0  0  0  0  0  0
    0.0855    9.4300  -11.6815 C   0  0  0  0  0  0  0  0  0  0  0  0
   -0.9963   12.8614   -8.9522 C   0  0  0  0  0  0  0  0  0  0  0  0
   -0.7535   13.9103   -7.9219 C   0  0  0  0  0  0  0  0  0  0  0  0
   -0.0296   13.4330   -6.6286 C   0  0  0  0  0  0  0  0  0  0  0  0
   -0.6638   14.1479   -5.4327 C   0  0  0  0  0  0  0  0  0  0  0  0
    1.4654   13.8215   -6.6900 C   0  0  0  0  0  0  0  0  0  0  0  0
   -0.0438   12.0226   -6.4175 C   0  0  0  0  0  0  0  0  0  0  0  0
   -0.7148   11.4717   -5.2434 O   0  0  0  0  0  0  0  0  0  0  0  0
   -0.9634   10.0984   -5.0848 C   0  0  0  0  0  0  0  0  0  0  0  0
   -1.6719    9.7640   -3.8151 C   0  0  0  0  0  0  0  0  0  0  0  0
   -2.3846    8.5145   -4.0150 N   0  0  0  0  0  0  0  0  0  0  0  0
   -3.0614    8.0670   -2.9051 N   0  0  0  0  0  0  0  0  0  0  0  0
   -4.4230    7.9915   -2.8901 C   0  0  0  0  0  0  0  0  0  0  0  0
   -5.1568    8.4083   -4.1382 C   0  0  0  0  0  0  0  0  0  0  0  0
   -6.3378    7.5913   -4.3899 N   0  0  0  0  0  0  0  0  0  0  0  0
   -6.3938    6.5789   -5.2661 C   0  0  0  0  0  0  0  0  0  0  0  0
   -7.7473    5.9702   -5.4307 C   0  0  0  0  0  0  0  0  0  0  0  0
   -7.8311    4.4632   -5.0409 C   0  0  0  0  0  0  0  0  0  0  0  0
   -9.2506    3.9507   -5.2691 C   0  0  0  0  0  0  0  0  0  0  0  0
   -7.4532    4.2731   -3.5700 C   0  0  0  0  0  0  0  0  0  0  0  0
   -8.1888    6.1759   -6.7813 N   0  0  0  0  0  0  0  0  0  0  0  0
   -9.1224    7.1302   -7.0110 C   0  0  0  0  0  0  0  0  0  0  0  0
   -9.7437    7.2439   -8.3748 C   0  0  0  0  0  0  0  0  0  0  0  0
  -10.8108    8.3142   -8.4644 C   0  0  0  0  0  0  0  0  0  0  0  0
  -11.4157    8.2974   -9.8148 C   0  0  0  0  0  0  0  0  0  0  0  0
  -11.8535    6.9328  -10.1582 N   0  0  0  0  0  0  0  0  0  0  0  0
  -13.0910    6.5878  -10.5399 C   0  0  0  0  0  0  0  0  0  0  0  0
  -14.1019    7.5438  -10.5234 C   0  0  0  0  0  0  0  0  0  0  0  0
  -15.0302    8.2202  -10.5612 C   0  0  0  0  0  0  0  0  0  0  0  0
  -16.1410    9.1153  -10.5040 C   0  0  0  0  0  0  0  0  0  0  0  0
  -16.1723    9.7889   -9.1999 N   0  0  0  0  0  0  0  0  0  0  0  0
  -16.0567    8.8725   -8.0578 C   0  0  0  0  0  0  0  0  0  0  0  0
  -15.2642   10.9294   -9.0748 C   0  0  0  0  0  0  0  0  0  0  0  0
  -17.4379    8.3240  -10.6862 C   0  0  0  0  0  0  0  0  0  0  0  0
  -15.9888   10.1411  -11.6333 C   0  0  0  0  0  0  0  0  0  0  0  0
  -13.3320    5.4404  -10.8743 O   0  0  0  0  0  0  0  0  0  0  0  0
  -10.9023    5.8769  -10.0387 C   0  0  0  0  0  0  0  0  0  0  0  0
  -10.4083    5.9182   -8.6544 C   0  0  0  0  0  0  0  0  0  0  0  0
   -9.4847    7.8847   -6.1008 O   0  0  0  0  0  0  0  0  0  0  0  0
   -7.5586    5.3278   -7.8338 C   0  0  0  0  0  0  0  0  0  0  0  0
   -5.4227    6.2235   -5.9212 O   0  0  0  0  0  0  0  0  0  0  0  0
   -5.5742    9.8899   -3.9348 C   0  0  0  0  0  0  0  0  0  0  0  0
   -5.6782   10.7691   -5.1512 C   0  0  0  0  0  0  0  0  0  0  0  0
   -5.1576   10.1716   -6.4407 C   0  0  0  0  0  0  0  0  0  0  0  0
   -5.3924   11.0583   -7.5711 N   0  0  0  0  0  0  0  0  0  0  0  0
   -6.1510   12.3373   -7.2792 C   0  0  0  0  0  0  0  0  0  0  0  0
   -7.2471   12.1402   -6.3412 C   0  0  0  0  0  0  0  0  0  0  0  0
   -7.0383   11.1577   -5.3253 O   0  0  0  0  0  0  0  0  0  0  0  0
   -5.0512    7.7005   -1.8981 O   0  0  0  0  0  0  0  0  0  0  0  0
   -2.2218    7.8242   -1.7304 C   0  0  0  0  0  0  0  0  0  0  0  0
   -1.4386    9.1268   -1.4159 C   0  0  0  0  0  0  0  0  0  0  0  0
   -0.7026    9.6142   -2.6383 C   0  0  0  0  0  0  0  0  0  0  0  0
   -0.6852    9.1585   -5.8682 O   0  0  0  0  0  0  0  0  0  0  0  0
   -2.1005   12.0474   -8.9952 C   0  0  0  0  0  0  0  0  0  0  0  0
   -1.9960   11.2005  -10.0851 C   0  0  0  0  0  0  0  0  0  0  0  0
   -3.0296   10.2524  -10.3258 C   0  0  0  0  0  0  0  0  0  0  0  0
   -4.1154   10.2122   -9.4539 C   0  0  0  0  0  0  0  0  0  0  0  0
   -4.2163   11.1158   -8.3850 C   0  0  0  0  0  0  0  0  0  0  0  0
   -3.1563   12.0170   -8.1613 C   0  0  0  0  0  0  0  0  0  0  0  0
   -8.7493    7.5328   -9.2985 F   0  0  0  0  0  0  0  0  0  0  0  0
  1  2  1  0  0  0  0
  2  3  1  0  0  0  0
  2  5  1  0  0  0  0
  3  4  1  0  0  0  0
  5  6  4  0  0  0  0
  5 10  4  0  0  0  0
  6  7  4  0  0  0  0
  7  8  4  0  0  0  0
  8  9  4  0  0  0  0
  9 10  4  0  0  0  0
 10 11  1  0  0  0  0
 11 12  4  0  0  0  0
 11 15  4  0  0  0  0
 12 13  1  0  0  0  0
 12 68  4  0  0  0  0
 13 14  1  0  0  0  0
 15 16  1  0  0  0  0
 15 67  4  0  0  0  0
 16 17  1  0  0  0  0
 17 18  1  0  0  0  0
 17 19  1  0  0  0  0
 17 20  1  0  0  0  0
 20 21  1  0  0  0  0
 21 22  1  0  0  0  0
 22 23  1  0  0  0  0
 22 66  2  0  0  0  0
 23 24  1  0  0  0  0
 23 65  1  0  0  0  0
 24 25  1  0  0  0  0
 25 26  1  0  0  0  0
 25 63  1  0  0  0  0
 26 27  1  0  0  0  0
 26 62  2  0  0  0  0
 27 28  1  0  0  0  0
 27 55  1  0  0  0  0
 28 29  1  0  0  0  0
 29 30  1  0  0  0  0
 29 54  2  0  0  0  0
 30 31  1  0  0  0  0
 30 34  1  0  0  0  0
 31 32  1  0  0  0  0
 31 33  1  0  0  0  0
 34 35  1  0  0  0  0
 34 53  1  0  0  0  0
 35 36  1  0  0  0  0
 35 52  2  0  0  0  0
 36 37  1  0  0  0  0
 36 51  1  0  0  0  0
 36 73  1  0  0  0  0
 37 38  1  0  0  0  0
 38 39  1  0  0  0  0
 39 40  1  0  0  0  0
 39 50  1  0  0  0  0
 40 41  1  0  0  0  0
 40 49  2  0  0  0  0
 41 42  1  0  0  0  0
 42 43  1  0  0  0  0
 43 44  1  0  0  0  0
 43 47  1  0  0  0  0
 43 48  1  0  0  0  0
 44 45  1  0  0  0  0
 44 46  1  0  0  0  0
 50 51  1  0  0  0  0
 55 56  1  0  0  0  0
 56 57  1  0  0  0  0
 56 61  1  0  0  0  0
 57 58  1  0  0  0  0
 58 59  1  0  0  0  0
 58 71  1  0  0  0  0
 59 60  1  0  0  0  0
 60 61  1  0  0  0  0
 63 64  1  0  0  0  0
 64 65  1  0  0  0  0
 67 68  4  0  0  0  0
 67 72  4  0  0  0  0
 68 69  4  0  0  0  0
 69 70  4  0  0  0  0
 70 71  4  0  0  0  0
 71 72  4  0  0  0  0
M  END
$$$$
