mol_ETKDG3_93
  PyMOL3.1          3D                             0

 73 79  0  0  0  0  0  0  0  0999 V2000
   -0.6722   16.2267  -12.0709 C   0  0  0  0  0  0  0  0  0  0  0  0
   -0.7685   14.7458  -11.8049 C   0  0  0  0  0  0  0  0  0  0  0  0
   -1.3499   14.0548  -12.8663 O   0  0  0  0  0  0  0  0  0  0  0  0
   -2.7719   14.0632  -12.9554 C   0  0  0  0  0  0  0  0  0  0  0  0
    0.5603   14.1387  -11.5237 C   0  0  0  0  0  0  0  0  0  0  0  0
    1.6504   14.7420  -11.9658 N   0  0  0  0  0  0  0  0  0  0  0  0
    2.8708   14.2133  -11.7514 C   0  0  0  0  0  0  0  0  0  0  0  0
    3.0204   13.0208  -11.0385 C   0  0  0  0  0  0  0  0  0  0  0  0
    1.8984   12.3988  -10.5837 C   0  0  0  0  0  0  0  0  0  0  0  0
    0.6789   12.9415  -10.8419 C   0  0  0  0  0  0  0  0  0  0  0  0
   -0.4959   12.2878  -10.3578 C   0  0  0  0  0  0  0  0  0  0  0  0
   -1.1342   11.2804  -11.0151 N   0  0  0  0  0  0  0  0  0  0  0  0
   -0.7505   10.6243  -12.2723 C   0  0  0  0  0  0  0  0  0  0  0  0
   -0.1090    9.2669  -11.9899 C   0  0  0  0  0  0  0  0  0  0  0  0
   -1.2026   12.6386   -9.2236 C   0  0  0  0  0  0  0  0  0  0  0  0
   -0.9474   13.6893   -8.1720 C   0  0  0  0  0  0  0  0  0  0  0  0
   -0.1723   13.2082   -6.9030 C   0  0  0  0  0  0  0  0  0  0  0  0
   -0.6813   14.0027   -5.6984 C   0  0  0  0  0  0  0  0  0  0  0  0
    1.3353   13.5007   -7.0695 C   0  0  0  0  0  0  0  0  0  0  0  0
   -0.2652   11.8120   -6.6353 C   0  0  0  0  0  0  0  0  0  0  0  0
   -0.8919   11.3436   -5.4014 O   0  0  0  0  0  0  0  0  0  0  0  0
   -1.0852    9.9713   -5.1302 C   0  0  0  0  0  0  0  0  0  0  0  0
   -1.7844    9.6957   -3.8453 C   0  0  0  0  0  0  0  0  0  0  0  0
   -2.4976    8.4326   -3.9899 N   0  0  0  0  0  0  0  0  0  0  0  0
   -3.1621    8.0300   -2.8544 N   0  0  0  0  0  0  0  0  0  0  0  0
   -4.5227    7.9356   -2.8300 C   0  0  0  0  0  0  0  0  0  0  0  0
   -5.2504    8.2069   -4.1181 C   0  0  0  0  0  0  0  0  0  0  0  0
   -6.4463    7.3941   -4.2694 N   0  0  0  0  0  0  0  0  0  0  0  0
   -6.5816    6.4215   -5.1851 C   0  0  0  0  0  0  0  0  0  0  0  0
   -7.9699    5.8658   -5.3078 C   0  0  0  0  0  0  0  0  0  0  0  0
   -8.0885    4.3645   -4.9456 C   0  0  0  0  0  0  0  0  0  0  0  0
   -9.5262    3.8926   -5.1287 C   0  0  0  0  0  0  0  0  0  0  0  0
   -7.6460    4.1421   -3.4948 C   0  0  0  0  0  0  0  0  0  0  0  0
   -8.4303    6.1490   -6.6532 N   0  0  0  0  0  0  0  0  0  0  0  0
   -9.2062    7.2568   -6.8431 C   0  0  0  0  0  0  0  0  0  0  0  0
   -9.7955    7.5575   -8.2009 C   0  0  0  0  0  0  0  0  0  0  0  0
  -11.2375    8.0201   -8.0907 C   0  0  0  0  0  0  0  0  0  0  0  0
  -11.7482    8.2560   -9.4374 C   0  0  0  0  0  0  0  0  0  0  0  0
  -10.8575    9.1467  -10.1971 N   0  0  0  0  0  0  0  0  0  0  0  0
  -11.3176   10.2018  -10.8792 C   0  0  0  0  0  0  0  0  0  0  0  0
  -12.6909   10.4472  -10.9041 C   0  0  0  0  0  0  0  0  0  0  0  0
  -13.8122   10.7027  -11.0401 C   0  0  0  0  0  0  0  0  0  0  0  0
  -15.2027   10.9790  -11.1005 C   0  0  0  0  0  0  0  0  0  0  0  0
  -15.9433   10.2523  -10.0674 N   0  0  0  0  0  0  0  0  0  0  0  0
  -15.2793   10.0669   -8.7968 C   0  0  0  0  0  0  0  0  0  0  0  0
  -17.3567   10.5180   -9.9764 C   0  0  0  0  0  0  0  0  0  0  0  0
  -15.4031   12.4877  -10.9235 C   0  0  0  0  0  0  0  0  0  0  0  0
  -15.7203   10.5185  -12.4708 C   0  0  0  0  0  0  0  0  0  0  0  0
  -10.5385   10.9172  -11.4771 O   0  0  0  0  0  0  0  0  0  0  0  0
   -9.4465    8.8519  -10.2436 C   0  0  0  0  0  0  0  0  0  0  0  0
   -8.9388    8.6149   -8.8705 C   0  0  0  0  0  0  0  0  0  0  0  0
   -9.4570    8.0192   -5.8976 O   0  0  0  0  0  0  0  0  0  0  0  0
   -7.9604    5.2469   -7.7271 C   0  0  0  0  0  0  0  0  0  0  0  0
   -5.6485    6.0707   -5.9019 O   0  0  0  0  0  0  0  0  0  0  0  0
   -5.6747    9.6982   -4.1037 C   0  0  0  0  0  0  0  0  0  0  0  0
   -6.1818   10.1164   -5.4627 C   0  0  0  0  0  0  0  0  0  0  0  0
   -4.9902   10.3382   -6.3525 C   0  0  0  0  0  0  0  0  0  0  0  0
   -5.4308   10.8406   -7.6634 N   0  0  0  0  0  0  0  0  0  0  0  0
   -6.2937   12.0923   -7.4798 C   0  0  0  0  0  0  0  0  0  0  0  0
   -7.4616   11.7778   -6.6095 C   0  0  0  0  0  0  0  0  0  0  0  0
   -6.9676   11.2941   -5.3336 O   0  0  0  0  0  0  0  0  0  0  0  0
   -5.1504    7.7219   -1.8145 O   0  0  0  0  0  0  0  0  0  0  0  0
   -2.3185    7.8312   -1.6853 C   0  0  0  0  0  0  0  0  0  0  0  0
   -1.5439    9.1519   -1.4161 C   0  0  0  0  0  0  0  0  0  0  0  0
   -0.8078    9.5901   -2.6734 C   0  0  0  0  0  0  0  0  0  0  0  0
   -0.7548    8.9774   -5.8349 O   0  0  0  0  0  0  0  0  0  0  0  0
   -2.2861   11.8067   -9.2238 C   0  0  0  0  0  0  0  0  0  0  0  0
   -2.2232   10.9653  -10.3279 C   0  0  0  0  0  0  0  0  0  0  0  0
   -3.2564   10.0116  -10.5392 C   0  0  0  0  0  0  0  0  0  0  0  0
   -4.2942    9.9724   -9.6298 C   0  0  0  0  0  0  0  0  0  0  0  0
   -4.3454   10.8755   -8.5409 C   0  0  0  0  0  0  0  0  0  0  0  0
   -3.2995   11.7670   -8.3448 C   0  0  0  0  0  0  0  0  0  0  0  0
   -9.8172    6.4574   -9.0080 F   0  0  0  0  0  0  0  0  0  0  0  0
  1  2  1  0  0  0  0
  2  3  1  0  0  0  0
  2  5  1  0  0  0  0
  3  4  1  0  0  0  0
  5  6  4  0  0  0  0
  5 10  4  0  0  0  0
  6  7  4  0  0  0  0
  7  8  4  0  0  0  0
  8  9  4  0  0  0  0
  9 10  4  0  0  0  0
 10 11  1  0  0  0  0
 11 12  4  0  0  0  0
 11 15  4  0  0  0  0
 12 13  1  0  0  0  0
 12 68  4  0  0  0  0
 13 14  1  0  0  0  0
 15 16  1  0  0  0  0
 15 67  4  0  0  0  0
 16 17  1  0  0  0  0
 17 18  1  0  0  0  0
 17 19  1  0  0  0  0
 17 20  1  0  0  0  0
 20 21  1  0  0  0  0
 21 22  1  0  0  0  0
 22 23  1  0  0  0  0
 22 66  2  0  0  0  0
 23 24  1  0  0  0  0
 23 65  1  0  0  0  0
 24 25  1  0  0  0  0
 25 26  1  0  0  0  0
 25 63  1  0  0  0  0
 26 27  1  0  0  0  0
 26 62  2  0  0  0  0
 27 28  1  0  0  0  0
 27 55  1  0  0  0  0
 28 29  1  0  0  0  0
 29 30  1  0  0  0  0
 29 54  2  0  0  0  0
 30 31  1  0  0  0  0
 30 34  1  0  0  0  0
 31 32  1  0  0  0  0
 31 33  1  0  0  0  0
 34 35  1  0  0  0  0
 34 53  1  0  0  0  0
 35 36  1  0  0  0  0
 35 52  2  0  0  0  0
 36 37  1  0  0  0  0
 36 51  1  0  0  0  0
 36 73  1  0  0  0  0
 37 38  1  0  0  0  0
 38 39  1  0  0  0  0
 39 40  1  0  0  0  0
 39 50  1  0  0  0  0
 40 41  1  0  0  0  0
 40 49  2  0  0  0  0
 41 42  1  0  0  0  0
 42 43  1  0  0  0  0
 43 44  1  0  0  0  0
 43 47  1  0  0  0  0
 43 48  1  0  0  0  0
 44 45  1  0  0  0  0
 44 46  1  0  0  0  0
 50 51  1  0  0  0  0
 55 56  1  0  0  0  0
 56 57  1  0  0  0  0
 56 61  1  0  0  0  0
 57 58  1  0  0  0  0
 58 59  1  0  0  0  0
 58 71  1  0  0  0  0
 59 60  1  0  0  0  0
 60 61  1  0  0  0  0
 63 64  1  0  0  0  0
 64 65  1  0  0  0  0
 67 68  4  0  0  0  0
 67 72  4  0  0  0  0
 68 69  4  0  0  0  0
 69 70  4  0  0  0  0
 70 71  4  0  0  0  0
 71 72  4  0  0  0  0
M  END
$$$$
