mol_ETKDG0_159
  PyMOL3.1          3D                             0

 73 79  0  0  0  0  0  0  0  0999 V2000
    0.1408   16.8907  -10.5361 C   0  0  0  0  0  0  0  0  0  0  0  0
   -0.0486   15.4130  -10.7841 C   0  0  0  0  0  0  0  0  0  0  0  0
   -0.4258   15.1005  -12.0860 O   0  0  0  0  0  0  0  0  0  0  0  0
   -1.8197   14.9853  -12.3278 C   0  0  0  0  0  0  0  0  0  0  0  0
    1.1780   14.6369  -10.5090 C   0  0  0  0  0  0  0  0  0  0  0  0
    2.3592   15.1948  -10.7465 N   0  0  0  0  0  0  0  0  0  0  0  0
    3.4931   14.4927  -10.5535 C   0  0  0  0  0  0  0  0  0  0  0  0
    3.4569   13.1845  -10.0768 C   0  0  0  0  0  0  0  0  0  0  0  0
    2.2453   12.6227   -9.8266 C   0  0  0  0  0  0  0  0  0  0  0  0
    1.1055   13.3413  -10.0562 C   0  0  0  0  0  0  0  0  0  0  0  0
   -0.1630   12.7436   -9.7627 C   0  0  0  0  0  0  0  0  0  0  0  0
   -0.7951   11.8396  -10.5518 N   0  0  0  0  0  0  0  0  0  0  0  0
   -0.3465   11.2967  -11.8339 C   0  0  0  0  0  0  0  0  0  0  0  0
    0.1782    9.8713  -11.6514 C   0  0  0  0  0  0  0  0  0  0  0  0
   -0.9547   13.0294   -8.6630 C   0  0  0  0  0  0  0  0  0  0  0  0
   -0.7438   13.9942   -7.5328 C   0  0  0  0  0  0  0  0  0  0  0  0
    0.0494   13.4262   -6.3349 C   0  0  0  0  0  0  0  0  0  0  0  0
   -0.4640   14.0836   -5.0522 C   0  0  0  0  0  0  0  0  0  0  0  0
    1.5507   13.7353   -6.4755 C   0  0  0  0  0  0  0  0  0  0  0  0
   -0.0285   12.0039   -6.2163 C   0  0  0  0  0  0  0  0  0  0  0  0
   -0.7042   11.4334   -5.0889 O   0  0  0  0  0  0  0  0  0  0  0  0
   -0.9876   10.0639   -4.9909 C   0  0  0  0  0  0  0  0  0  0  0  0
   -1.7113    9.7254   -3.7449 C   0  0  0  0  0  0  0  0  0  0  0  0
   -2.3911    8.4566   -3.9504 N   0  0  0  0  0  0  0  0  0  0  0  0
   -3.0668    8.0194   -2.8417 N   0  0  0  0  0  0  0  0  0  0  0  0
   -4.4260    7.9304   -2.8430 C   0  0  0  0  0  0  0  0  0  0  0  0
   -5.1332    8.2501   -4.1289 C   0  0  0  0  0  0  0  0  0  0  0  0
   -6.2999    7.4220   -4.3424 N   0  0  0  0  0  0  0  0  0  0  0  0
   -6.3444    6.4611   -5.2580 C   0  0  0  0  0  0  0  0  0  0  0  0
   -7.6979    5.8551   -5.4253 C   0  0  0  0  0  0  0  0  0  0  0  0
   -7.7663    4.3502   -5.0312 C   0  0  0  0  0  0  0  0  0  0  0  0
   -9.1449    3.7890   -5.3381 C   0  0  0  0  0  0  0  0  0  0  0  0
   -7.4780    4.1924   -3.5341 C   0  0  0  0  0  0  0  0  0  0  0  0
   -8.1187    6.0427   -6.7834 N   0  0  0  0  0  0  0  0  0  0  0  0
   -9.1205    6.9203   -7.0190 C   0  0  0  0  0  0  0  0  0  0  0  0
   -9.7549    6.9682   -8.3800 C   0  0  0  0  0  0  0  0  0  0  0  0
  -11.0720    7.7325   -8.3687 C   0  0  0  0  0  0  0  0  0  0  0  0
  -11.7848    7.5644   -9.6724 C   0  0  0  0  0  0  0  0  0  0  0  0
  -11.8587    6.1361  -10.0180 N   0  0  0  0  0  0  0  0  0  0  0  0
  -12.9658    5.3770  -10.1695 C   0  0  0  0  0  0  0  0  0  0  0  0
  -14.1999    5.9414   -9.9852 C   0  0  0  0  0  0  0  0  0  0  0  0
  -15.2732    6.3020   -9.8737 C   0  0  0  0  0  0  0  0  0  0  0  0
  -16.5812    6.8356   -9.6525 C   0  0  0  0  0  0  0  0  0  0  0  0
  -16.5710    7.6750   -8.4442 N   0  0  0  0  0  0  0  0  0  0  0  0
  -16.0666    6.9735   -7.2514 C   0  0  0  0  0  0  0  0  0  0  0  0
  -15.9129    8.9821   -8.6244 C   0  0  0  0  0  0  0  0  0  0  0  0
  -17.5644    5.6813   -9.4395 C   0  0  0  0  0  0  0  0  0  0  0  0
  -16.9767    7.6652  -10.8763 C   0  0  0  0  0  0  0  0  0  0  0  0
  -12.8807    4.1844  -10.4580 O   0  0  0  0  0  0  0  0  0  0  0  0
  -10.6429    5.4457  -10.1029 C   0  0  0  0  0  0  0  0  0  0  0  0
  -10.0864    5.5408   -8.7419 C   0  0  0  0  0  0  0  0  0  0  0  0
   -9.5360    7.6636   -6.1178 O   0  0  0  0  0  0  0  0  0  0  0  0
   -7.3953    5.2654   -7.8233 C   0  0  0  0  0  0  0  0  0  0  0  0
   -5.3794    6.1435   -5.9330 O   0  0  0  0  0  0  0  0  0  0  0  0
   -5.6038    9.7283   -4.0443 C   0  0  0  0  0  0  0  0  0  0  0  0
   -6.0935   10.2128   -5.3857 C   0  0  0  0  0  0  0  0  0  0  0  0
   -4.8892   10.4803   -6.2387 C   0  0  0  0  0  0  0  0  0  0  0  0
   -5.2903   11.1260   -7.5016 N   0  0  0  0  0  0  0  0  0  0  0  0
   -6.1583   12.3530   -7.2270 C   0  0  0  0  0  0  0  0  0  0  0  0
   -7.3516   11.9615   -6.4157 C   0  0  0  0  0  0  0  0  0  0  0  0
   -6.8964   11.3724   -5.1885 O   0  0  0  0  0  0  0  0  0  0  0  0
   -5.0654    7.6822   -1.8475 O   0  0  0  0  0  0  0  0  0  0  0  0
   -2.2287    7.7942   -1.6587 C   0  0  0  0  0  0  0  0  0  0  0  0
   -1.4985    9.1023   -1.3373 C   0  0  0  0  0  0  0  0  0  0  0  0
   -0.7522    9.6050   -2.5564 C   0  0  0  0  0  0  0  0  0  0  0  0
   -0.7282    9.1326   -5.7990 O   0  0  0  0  0  0  0  0  0  0  0  0
   -2.0575   12.2321   -8.8034 C   0  0  0  0  0  0  0  0  0  0  0  0
   -1.9380   11.4964   -9.9695 C   0  0  0  0  0  0  0  0  0  0  0  0
   -2.9676   10.5893  -10.3252 C   0  0  0  0  0  0  0  0  0  0  0  0
   -4.0651   10.4740   -9.4756 C   0  0  0  0  0  0  0  0  0  0  0  0
   -4.1664   11.2565   -8.3190 C   0  0  0  0  0  0  0  0  0  0  0  0
   -3.1244   12.1272   -7.9881 C   0  0  0  0  0  0  0  0  0  0  0  0
   -8.8740    7.5366   -9.2854 F   0  0  0  0  0  0  0  0  0  0  0  0
  1  2  1  0  0  0  0
  2  3  1  0  0  0  0
  2  5  1  0  0  0  0
  3  4  1  0  0  0  0
  5  6  4  0  0  0  0
  5 10  4  0  0  0  0
  6  7  4  0  0  0  0
  7  8  4  0  0  0  0
  8  9  4  0  0  0  0
  9 10  4  0  0  0  0
 10 11  1  0  0  0  0
 11 12  4  0  0  0  0
 11 15  4  0  0  0  0
 12 13  1  0  0  0  0
 12 68  4  0  0  0  0
 13 14  1  0  0  0  0
 15 16  1  0  0  0  0
 15 67  4  0  0  0  0
 16 17  1  0  0  0  0
 17 18  1  0  0  0  0
 17 19  1  0  0  0  0
 17 20  1  0  0  0  0
 20 21  1  0  0  0  0
 21 22  1  0  0  0  0
 22 23  1  0  0  0  0
 22 66  2  0  0  0  0
 23 24  1  0  0  0  0
 23 65  1  0  0  0  0
 24 25  1  0  0  0  0
 25 26  1  0  0  0  0
 25 63  1  0  0  0  0
 26 27  1  0  0  0  0
 26 62  2  0  0  0  0
 27 28  1  0  0  0  0
 27 55  1  0  0  0  0
 28 29  1  0  0  0  0
 29 30  1  0  0  0  0
 29 54  2  0  0  0  0
 30 31  1  0  0  0  0
 30 34  1  0  0  0  0
 31 32  1  0  0  0  0
 31 33  1  0  0  0  0
 34 35  1  0  0  0  0
 34 53  1  0  0  0  0
 35 36  1  0  0  0  0
 35 52  2  0  0  0  0
 36 37  1  0  0  0  0
 36 51  1  0  0  0  0
 36 73  1  0  0  0  0
 37 38  1  0  0  0  0
 38 39  1  0  0  0  0
 39 40  1  0  0  0  0
 39 50  1  0  0  0  0
 40 41  1  0  0  0  0
 40 49  2  0  0  0  0
 41 42  1  0  0  0  0
 42 43  1  0  0  0  0
 43 44  1  0  0  0  0
 43 47  1  0  0  0  0
 43 48  1  0  0  0  0
 44 45  1  0  0  0  0
 44 46  1  0  0  0  0
 50 51  1  0  0  0  0
 55 56  1  0  0  0  0
 56 57  1  0  0  0  0
 56 61  1  0  0  0  0
 57 58  1  0  0  0  0
 58 59  1  0  0  0  0
 58 71  1  0  0  0  0
 59 60  1  0  0  0  0
 60 61  1  0  0  0  0
 63 64  1  0  0  0  0
 64 65  1  0  0  0  0
 67 68  4  0  0  0  0
 67 72  4  0  0  0  0
 68 69  4  0  0  0  0
 69 70  4  0  0  0  0
 70 71  4  0  0  0  0
 71 72  4  0  0  0  0
M  END
$$$$
