mol_bioactive_16
  PyMOL3.1          3D                             0

 73 79  0  0  0  0  0  0  0  0999 V2000
    3.3597   13.4629   -7.4239 C   0  0  0  0  0  0  0  0  0  0  0  0
    2.6936   12.9637   -8.7079 C   0  0  0  0  0  0  0  0  0  0  0  0
    3.5902   12.2303   -9.5014 O   0  0  0  0  0  0  0  0  0  0  0  0
    3.1911   12.2209  -10.8518 C   0  0  0  0  0  0  0  0  0  0  0  0
    2.2360   14.0702   -9.5083 C   0  0  0  0  0  0  0  0  0  0  0  0
    3.1453   14.9747   -9.8049 N   0  0  0  0  0  0  0  0  0  0  0  0
    2.8444   15.9879  -10.5978 C   0  0  0  0  0  0  0  0  0  0  0  0
    1.5579   16.1306  -11.1130 C   0  0  0  0  0  0  0  0  0  0  0  0
    0.6187   15.2001  -10.7824 C   0  0  0  0  0  0  0  0  0  0  0  0
    0.9574   14.1367   -9.9864 C   0  0  0  0  0  0  0  0  0  0  0  0
   -0.0901   13.1951   -9.6443 C   0  0  0  0  0  0  0  0  0  0  0  0
   -0.4698   12.1199  -10.4025 N   0  0  0  0  0  0  0  0  0  0  0  0
    0.1489   11.5942  -11.6133 C   0  0  0  0  0  0  0  0  0  0  0  0
    0.8115   10.2432  -11.3233 C   0  0  0  0  0  0  0  0  0  0  0  0
   -0.9405   13.3120   -8.5824 C   0  0  0  0  0  0  0  0  0  0  0  0
   -0.9046   14.2644   -7.4575 C   0  0  0  0  0  0  0  0  0  0  0  0
   -0.5802   13.6969   -6.0574 C   0  0  0  0  0  0  0  0  0  0  0  0
   -1.7901   13.9656   -5.1741 C   0  0  0  0  0  0  0  0  0  0  0  0
    0.6386   14.4268   -5.4576 C   0  0  0  0  0  0  0  0  0  0  0  0
   -0.2432   12.2647   -6.0118 C   0  0  0  0  0  0  0  0  0  0  0  0
   -0.8180   11.5328   -4.9307 O   0  0  0  0  0  0  0  0  0  0  0  0
   -1.0103   10.1441   -4.9323 C   0  0  0  0  0  0  0  0  0  0  0  0
   -1.7156    9.6954   -3.7044 C   0  0  0  0  0  0  0  0  0  0  0  0
   -2.3945    8.4363   -3.9630 N   0  0  0  0  0  0  0  0  0  0  0  0
   -3.0946    7.9802   -2.8753 N   0  0  0  0  0  0  0  0  0  0  0  0
   -4.4528    7.9230   -2.8868 C   0  0  0  0  0  0  0  0  0  0  0  0
   -5.1530    8.2993   -4.1681 C   0  0  0  0  0  0  0  0  0  0  0  0
   -6.3420    7.4965   -4.4028 N   0  0  0  0  0  0  0  0  0  0  0  0
   -6.4011    6.4718   -5.2617 C   0  0  0  0  0  0  0  0  0  0  0  0
   -7.7441    5.8511   -5.3998 C   0  0  0  0  0  0  0  0  0  0  0  0
   -7.7763    4.3475   -4.9909 C   0  0  0  0  0  0  0  0  0  0  0  0
   -9.1550    3.7596   -5.2624 C   0  0  0  0  0  0  0  0  0  0  0  0
   -7.4532    4.2040   -3.5036 C   0  0  0  0  0  0  0  0  0  0  0  0
   -8.2278    6.0237   -6.7391 N   0  0  0  0  0  0  0  0  0  0  0  0
   -9.2718    6.8603   -6.9335 C   0  0  0  0  0  0  0  0  0  0  0  0
  -10.0054    6.8581   -8.2427 C   0  0  0  0  0  0  0  0  0  0  0  0
  -11.2722    7.6854   -8.1607 C   0  0  0  0  0  0  0  0  0  0  0  0
  -12.0808    7.5199   -9.3900 C   0  0  0  0  0  0  0  0  0  0  0  0
  -12.2880    6.0934   -9.6604 N   0  0  0  0  0  0  0  0  0  0  0  0
  -13.4793    5.4532   -9.7087 C   0  0  0  0  0  0  0  0  0  0  0  0
  -14.6346    6.1295   -9.3257 C   0  0  0  0  0  0  0  0  0  0  0  0
  -15.6380    6.5898   -9.0613 C   0  0  0  0  0  0  0  0  0  0  0  0
  -16.8441    7.2483   -8.6377 C   0  0  0  0  0  0  0  0  0  0  0  0
  -16.4940    8.4491   -7.8623 N   0  0  0  0  0  0  0  0  0  0  0  0
  -15.6830    8.1602   -6.6730 C   0  0  0  0  0  0  0  0  0  0  0  0
  -15.9014    9.5157   -8.6659 C   0  0  0  0  0  0  0  0  0  0  0  0
  -17.6540    6.2983   -7.7633 C   0  0  0  0  0  0  0  0  0  0  0  0
  -17.6375    7.6343   -9.8825 C   0  0  0  0  0  0  0  0  0  0  0  0
  -13.5385    4.2883  -10.0563 O   0  0  0  0  0  0  0  0  0  0  0  0
  -11.1269    5.2938   -9.7931 C   0  0  0  0  0  0  0  0  0  0  0  0
  -10.4176    5.4168   -8.5005 C   0  0  0  0  0  0  0  0  0  0  0  0
   -9.6536    7.6047   -6.0217 O   0  0  0  0  0  0  0  0  0  0  0  0
   -7.5396    5.2572   -7.8127 C   0  0  0  0  0  0  0  0  0  0  0  0
   -5.4278    6.1063   -5.9061 O   0  0  0  0  0  0  0  0  0  0  0  0
   -5.5402    9.7895   -4.0520 C   0  0  0  0  0  0  0  0  0  0  0  0
   -5.6312   10.5684   -5.3323 C   0  0  0  0  0  0  0  0  0  0  0  0
   -4.8680    9.9830   -6.5073 C   0  0  0  0  0  0  0  0  0  0  0  0
   -5.0788   10.7780   -7.6974 N   0  0  0  0  0  0  0  0  0  0  0  0
   -6.0714   11.9186   -7.5853 C   0  0  0  0  0  0  0  0  0  0  0  0
   -7.2123   11.6199   -6.7602 C   0  0  0  0  0  0  0  0  0  0  0  0
   -6.9923   10.7217   -5.6825 O   0  0  0  0  0  0  0  0  0  0  0  0
   -5.1035    7.6781   -1.8969 O   0  0  0  0  0  0  0  0  0  0  0  0
   -2.2844    7.7278   -1.6865 C   0  0  0  0  0  0  0  0  0  0  0  0
   -1.5167    9.0234   -1.3332 C   0  0  0  0  0  0  0  0  0  0  0  0
   -0.7612    9.5242   -2.5276 C   0  0  0  0  0  0  0  0  0  0  0  0
   -0.6887    9.3180   -5.8053 O   0  0  0  0  0  0  0  0  0  0  0  0
   -1.8799   12.3205   -8.7626 C   0  0  0  0  0  0  0  0  0  0  0  0
   -1.5609   11.5843   -9.8778 C   0  0  0  0  0  0  0  0  0  0  0  0
   -2.3979   10.4927  -10.2481 C   0  0  0  0  0  0  0  0  0  0  0  0
   -3.5208   10.2198   -9.4735 C   0  0  0  0  0  0  0  0  0  0  0  0
   -3.8544   11.0307   -8.3833 C   0  0  0  0  0  0  0  0  0  0  0  0
   -2.9717   12.0662   -8.0229 C   0  0  0  0  0  0  0  0  0  0  0  0
   -9.1798    7.3429   -9.2375 F   0  0  0  0  0  0  0  0  0  0  0  0
  1  2  1  0  0  0  0
  2  3  1  0  0  0  0
  2  5  1  0  0  0  0
  3  4  1  0  0  0  0
  5  6  4  0  0  0  0
  5 10  4  0  0  0  0
  6  7  4  0  0  0  0
  7  8  4  0  0  0  0
  8  9  4  0  0  0  0
  9 10  4  0  0  0  0
 10 11  1  0  0  0  0
 11 12  4  0  0  0  0
 11 15  4  0  0  0  0
 12 13  1  0  0  0  0
 12 68  4  0  0  0  0
 13 14  1  0  0  0  0
 15 16  1  0  0  0  0
 15 67  4  0  0  0  0
 16 17  1  0  0  0  0
 17 18  1  0  0  0  0
 17 19  1  0  0  0  0
 17 20  1  0  0  0  0
 20 21  1  0  0  0  0
 21 22  1  0  0  0  0
 22 23  1  0  0  0  0
 22 66  2  0  0  0  0
 23 24  1  0  0  0  0
 23 65  1  0  0  0  0
 24 25  1  0  0  0  0
 25 26  1  0  0  0  0
 25 63  1  0  0  0  0
 26 27  1  0  0  0  0
 26 62  2  0  0  0  0
 27 28  1  0  0  0  0
 27 55  1  0  0  0  0
 28 29  1  0  0  0  0
 29 30  1  0  0  0  0
 29 54  2  0  0  0  0
 30 31  1  0  0  0  0
 30 34  1  0  0  0  0
 31 32  1  0  0  0  0
 31 33  1  0  0  0  0
 34 35  1  0  0  0  0
 34 53  1  0  0  0  0
 35 36  1  0  0  0  0
 35 52  2  0  0  0  0
 36 37  1  0  0  0  0
 36 51  1  0  0  0  0
 36 73  1  0  0  0  0
 37 38  1  0  0  0  0
 38 39  1  0  0  0  0
 39 40  1  0  0  0  0
 39 50  1  0  0  0  0
 40 41  1  0  0  0  0
 40 49  2  0  0  0  0
 41 42  1  0  0  0  0
 42 43  1  0  0  0  0
 43 44  1  0  0  0  0
 43 47  1  0  0  0  0
 43 48  1  0  0  0  0
 44 45  1  0  0  0  0
 44 46  1  0  0  0  0
 50 51  1  0  0  0  0
 55 56  1  0  0  0  0
 56 57  1  0  0  0  0
 56 61  1  0  0  0  0
 57 58  1  0  0  0  0
 58 59  1  0  0  0  0
 58 71  1  0  0  0  0
 59 60  1  0  0  0  0
 60 61  1  0  0  0  0
 63 64  1  0  0  0  0
 64 65  1  0  0  0  0
 67 68  4  0  0  0  0
 67 72  4  0  0  0  0
 68 69  4  0  0  0  0
 69 70  4  0  0  0  0
 70 71  4  0  0  0  0
 71 72  4  0  0  0  0
M  END
$$$$
