mol_ETKDG1_36
  PyMOL3.1          3D                             0

 73 79  0  0  0  0  0  0  0  0999 V2000
   -0.4173   16.1575  -11.8086 C   0  0  0  0  0  0  0  0  0  0  0  0
   -0.3042   14.6536  -11.7968 C   0  0  0  0  0  0  0  0  0  0  0  0
   -0.5187   14.0444  -13.0354 O   0  0  0  0  0  0  0  0  0  0  0  0
   -1.8643   13.7411  -13.3946 C   0  0  0  0  0  0  0  0  0  0  0  0
    1.0180   14.1999  -11.3053 C   0  0  0  0  0  0  0  0  0  0  0  0
    2.1047   14.8346  -11.7138 N   0  0  0  0  0  0  0  0  0  0  0  0
    3.3185   14.4293  -11.3205 C   0  0  0  0  0  0  0  0  0  0  0  0
    3.4647   13.3443  -10.4521 C   0  0  0  0  0  0  0  0  0  0  0  0
    2.3498   12.6938  -10.0274 C   0  0  0  0  0  0  0  0  0  0  0  0
    1.1264   13.1125  -10.4667 C   0  0  0  0  0  0  0  0  0  0  0  0
   -0.0656   12.4468  -10.0241 C   0  0  0  0  0  0  0  0  0  0  0  0
   -0.6481   11.3990  -10.6684 N   0  0  0  0  0  0  0  0  0  0  0  0
   -0.1362   10.6757  -11.8379 C   0  0  0  0  0  0  0  0  0  0  0  0
    0.5384    9.3706  -11.3858 C   0  0  0  0  0  0  0  0  0  0  0  0
   -0.8563   12.8209   -8.9438 C   0  0  0  0  0  0  0  0  0  0  0  0
   -0.6641   13.8800   -7.9192 C   0  0  0  0  0  0  0  0  0  0  0  0
    0.0089   13.4130   -6.6017 C   0  0  0  0  0  0  0  0  0  0  0  0
   -0.6791   14.1055   -5.4232 C   0  0  0  0  0  0  0  0  0  0  0  0
    1.4983   13.7989   -6.5947 C   0  0  0  0  0  0  0  0  0  0  0  0
    0.0079   11.9807   -6.3660 C   0  0  0  0  0  0  0  0  0  0  0  0
   -0.6880   11.4424   -5.1987 O   0  0  0  0  0  0  0  0  0  0  0  0
   -0.9625   10.0702   -5.0557 C   0  0  0  0  0  0  0  0  0  0  0  0
   -1.6888    9.7417   -3.7870 C   0  0  0  0  0  0  0  0  0  0  0  0
   -2.3854    8.4760   -3.9825 N   0  0  0  0  0  0  0  0  0  0  0  0
   -3.0557    8.0298   -2.8664 N   0  0  0  0  0  0  0  0  0  0  0  0
   -4.4153    7.9271   -2.8556 C   0  0  0  0  0  0  0  0  0  0  0  0
   -5.1376    8.2524   -4.1351 C   0  0  0  0  0  0  0  0  0  0  0  0
   -6.3189    7.4437   -4.3353 N   0  0  0  0  0  0  0  0  0  0  0  0
   -6.3971    6.4902   -5.2475 C   0  0  0  0  0  0  0  0  0  0  0  0
   -7.7618    5.9104   -5.4155 C   0  0  0  0  0  0  0  0  0  0  0  0
   -7.8405    4.3954   -5.0597 C   0  0  0  0  0  0  0  0  0  0  0  0
   -9.2351    3.8652   -5.3352 C   0  0  0  0  0  0  0  0  0  0  0  0
   -7.4911    4.1939   -3.5761 C   0  0  0  0  0  0  0  0  0  0  0  0
   -8.1785    6.1558   -6.7681 N   0  0  0  0  0  0  0  0  0  0  0  0
   -9.1206    7.1142   -6.9801 C   0  0  0  0  0  0  0  0  0  0  0  0
   -9.7294    7.2370   -8.3520 C   0  0  0  0  0  0  0  0  0  0  0  0
  -10.8948    8.2162   -8.4841 C   0  0  0  0  0  0  0  0  0  0  0  0
  -11.4526    8.1266   -9.8685 C   0  0  0  0  0  0  0  0  0  0  0  0
  -11.7072    6.7093  -10.2281 N   0  0  0  0  0  0  0  0  0  0  0  0
  -12.8320    6.1811  -10.6937 C   0  0  0  0  0  0  0  0  0  0  0  0
  -13.9176    6.9914  -10.8917 C   0  0  0  0  0  0  0  0  0  0  0  0
  -14.9017    7.5160  -11.1215 C   0  0  0  0  0  0  0  0  0  0  0  0
  -16.1079    8.2165  -11.3556 C   0  0  0  0  0  0  0  0  0  0  0  0
  -16.7223    8.6031  -10.0775 N   0  0  0  0  0  0  0  0  0  0  0  0
  -16.7357    7.5247   -9.0813 C   0  0  0  0  0  0  0  0  0  0  0  0
  -16.2558    9.8662   -9.5147 C   0  0  0  0  0  0  0  0  0  0  0  0
  -17.0739    7.2852  -12.1093 C   0  0  0  0  0  0  0  0  0  0  0  0
  -15.7735    9.4468  -12.2022 C   0  0  0  0  0  0  0  0  0  0  0  0
  -12.9143    4.9844  -10.9490 O   0  0  0  0  0  0  0  0  0  0  0  0
  -10.6649    5.7758  -10.0403 C   0  0  0  0  0  0  0  0  0  0  0  0
  -10.2908    5.8776   -8.6420 C   0  0  0  0  0  0  0  0  0  0  0  0
   -9.4984    7.8580   -6.0686 O   0  0  0  0  0  0  0  0  0  0  0  0
   -7.5097    5.3607   -7.8302 C   0  0  0  0  0  0  0  0  0  0  0  0
   -5.4339    6.1510   -5.9279 O   0  0  0  0  0  0  0  0  0  0  0  0
   -5.5823    9.7387   -4.0574 C   0  0  0  0  0  0  0  0  0  0  0  0
   -6.0172   10.2303   -5.4199 C   0  0  0  0  0  0  0  0  0  0  0  0
   -4.7804   10.4304   -6.2531 C   0  0  0  0  0  0  0  0  0  0  0  0
   -5.1417   10.9988   -7.5498 N   0  0  0  0  0  0  0  0  0  0  0  0
   -5.9830   12.2789   -7.3428 C   0  0  0  0  0  0  0  0  0  0  0  0
   -7.1838   11.9748   -6.5212 C   0  0  0  0  0  0  0  0  0  0  0  0
   -6.7660   11.4215   -5.2636 O   0  0  0  0  0  0  0  0  0  0  0  0
   -5.0485    7.6627   -1.8678 O   0  0  0  0  0  0  0  0  0  0  0  0
   -2.2239    7.7929   -1.6995 C   0  0  0  0  0  0  0  0  0  0  0  0
   -1.4561    9.1086   -1.3811 C   0  0  0  0  0  0  0  0  0  0  0  0
   -0.7207    9.6068   -2.6104 C   0  0  0  0  0  0  0  0  0  0  0  0
   -0.6923    9.1277   -5.8419 O   0  0  0  0  0  0  0  0  0  0  0  0
   -1.9248   11.9663   -8.9757 C   0  0  0  0  0  0  0  0  0  0  0  0
   -1.7706   11.0877  -10.0346 C   0  0  0  0  0  0  0  0  0  0  0  0
   -2.7679   10.1082  -10.2603 C   0  0  0  0  0  0  0  0  0  0  0  0
   -3.8614   10.0766   -9.4073 C   0  0  0  0  0  0  0  0  0  0  0  0
   -4.0069   11.0204   -8.3654 C   0  0  0  0  0  0  0  0  0  0  0  0
   -2.9739   11.9364   -8.1638 C   0  0  0  0  0  0  0  0  0  0  0  0
   -8.7385    7.6063   -9.2375 F   0  0  0  0  0  0  0  0  0  0  0  0
  1  2  1  0  0  0  0
  2  3  1  0  0  0  0
  2  5  1  0  0  0  0
  3  4  1  0  0  0  0
  5  6  4  0  0  0  0
  5 10  4  0  0  0  0
  6  7  4  0  0  0  0
  7  8  4  0  0  0  0
  8  9  4  0  0  0  0
  9 10  4  0  0  0  0
 10 11  1  0  0  0  0
 11 12  4  0  0  0  0
 11 15  4  0  0  0  0
 12 13  1  0  0  0  0
 12 68  4  0  0  0  0
 13 14  1  0  0  0  0
 15 16  1  0  0  0  0
 15 67  4  0  0  0  0
 16 17  1  0  0  0  0
 17 18  1  0  0  0  0
 17 19  1  0  0  0  0
 17 20  1  0  0  0  0
 20 21  1  0  0  0  0
 21 22  1  0  0  0  0
 22 23  1  0  0  0  0
 22 66  2  0  0  0  0
 23 24  1  0  0  0  0
 23 65  1  0  0  0  0
 24 25  1  0  0  0  0
 25 26  1  0  0  0  0
 25 63  1  0  0  0  0
 26 27  1  0  0  0  0
 26 62  2  0  0  0  0
 27 28  1  0  0  0  0
 27 55  1  0  0  0  0
 28 29  1  0  0  0  0
 29 30  1  0  0  0  0
 29 54  2  0  0  0  0
 30 31  1  0  0  0  0
 30 34  1  0  0  0  0
 31 32  1  0  0  0  0
 31 33  1  0  0  0  0
 34 35  1  0  0  0  0
 34 53  1  0  0  0  0
 35 36  1  0  0  0  0
 35 52  2  0  0  0  0
 36 37  1  0  0  0  0
 36 51  1  0  0  0  0
 36 73  1  0  0  0  0
 37 38  1  0  0  0  0
 38 39  1  0  0  0  0
 39 40  1  0  0  0  0
 39 50  1  0  0  0  0
 40 41  1  0  0  0  0
 40 49  2  0  0  0  0
 41 42  1  0  0  0  0
 42 43  1  0  0  0  0
 43 44  1  0  0  0  0
 43 47  1  0  0  0  0
 43 48  1  0  0  0  0
 44 45  1  0  0  0  0
 44 46  1  0  0  0  0
 50 51  1  0  0  0  0
 55 56  1  0  0  0  0
 56 57  1  0  0  0  0
 56 61  1  0  0  0  0
 57 58  1  0  0  0  0
 58 59  1  0  0  0  0
 58 71  1  0  0  0  0
 59 60  1  0  0  0  0
 60 61  1  0  0  0  0
 63 64  1  0  0  0  0
 64 65  1  0  0  0  0
 67 68  4  0  0  0  0
 67 72  4  0  0  0  0
 68 69  4  0  0  0  0
 69 70  4  0  0  0  0
 70 71  4  0  0  0  0
 71 72  4  0  0  0  0
M  END
$$$$
