mol_ETKDG0_173
  PyMOL3.1          3D                             0

 73 79  0  0  0  0  0  0  0  0999 V2000
   -0.2028   16.0313  -11.8872 C   0  0  0  0  0  0  0  0  0  0  0  0
   -0.0506   14.5346  -12.0852 C   0  0  0  0  0  0  0  0  0  0  0  0
   -0.0287   14.1290  -13.4313 O   0  0  0  0  0  0  0  0  0  0  0  0
   -1.2749   13.9485  -14.0806 C   0  0  0  0  0  0  0  0  0  0  0  0
    1.1886   14.0237  -11.4598 C   0  0  0  0  0  0  0  0  0  0  0  0
    2.3460   14.5732  -11.8126 N   0  0  0  0  0  0  0  0  0  0  0  0
    3.5017   14.1190  -11.2861 C   0  0  0  0  0  0  0  0  0  0  0  0
    3.5112   13.0810  -10.3571 C   0  0  0  0  0  0  0  0  0  0  0  0
    2.3230   12.5219   -9.9999 C   0  0  0  0  0  0  0  0  0  0  0  0
    1.1613   12.9795  -10.5623 C   0  0  0  0  0  0  0  0  0  0  0  0
   -0.0917   12.3947  -10.1731 C   0  0  0  0  0  0  0  0  0  0  0  0
   -0.7277   11.3977  -10.8563 N   0  0  0  0  0  0  0  0  0  0  0  0
   -0.2643   10.6998  -12.0713 C   0  0  0  0  0  0  0  0  0  0  0  0
    0.3517    9.3442  -11.7028 C   0  0  0  0  0  0  0  0  0  0  0  0
   -0.8812   12.7982   -9.0950 C   0  0  0  0  0  0  0  0  0  0  0  0
   -0.6505   13.8707   -8.0653 C   0  0  0  0  0  0  0  0  0  0  0  0
   -0.0461   13.4056   -6.7075 C   0  0  0  0  0  0  0  0  0  0  0  0
   -0.8013   14.1055   -5.5789 C   0  0  0  0  0  0  0  0  0  0  0  0
    1.4409   13.8129   -6.6138 C   0  0  0  0  0  0  0  0  0  0  0  0
   -0.0517   11.9790   -6.4878 C   0  0  0  0  0  0  0  0  0  0  0  0
   -0.7094   11.4412   -5.3076 O   0  0  0  0  0  0  0  0  0  0  0  0
   -0.9666   10.0648   -5.1297 C   0  0  0  0  0  0  0  0  0  0  0  0
   -1.6983    9.7581   -3.8645 C   0  0  0  0  0  0  0  0  0  0  0  0
   -2.4047    8.4923   -4.0445 N   0  0  0  0  0  0  0  0  0  0  0  0
   -3.0864    8.0727   -2.9281 N   0  0  0  0  0  0  0  0  0  0  0  0
   -4.4512    7.9853   -2.9275 C   0  0  0  0  0  0  0  0  0  0  0  0
   -5.1590    8.2938   -4.2245 C   0  0  0  0  0  0  0  0  0  0  0  0
   -6.3461    7.4877   -4.4196 N   0  0  0  0  0  0  0  0  0  0  0  0
   -6.4372    6.5341   -5.3554 C   0  0  0  0  0  0  0  0  0  0  0  0
   -7.8129    5.9568   -5.4955 C   0  0  0  0  0  0  0  0  0  0  0  0
   -7.8921    4.4464   -5.1112 C   0  0  0  0  0  0  0  0  0  0  0  0
   -9.3051    3.9206   -5.3233 C   0  0  0  0  0  0  0  0  0  0  0  0
   -7.4977    4.2628   -3.6380 C   0  0  0  0  0  0  0  0  0  0  0  0
   -8.2925    6.1824   -6.8451 N   0  0  0  0  0  0  0  0  0  0  0  0
   -9.2329    7.1526   -7.0329 C   0  0  0  0  0  0  0  0  0  0  0  0
   -9.9638    7.2302   -8.3503 C   0  0  0  0  0  0  0  0  0  0  0  0
  -11.0213    8.3290   -8.3840 C   0  0  0  0  0  0  0  0  0  0  0  0
  -11.8129    8.2439   -9.6563 C   0  0  0  0  0  0  0  0  0  0  0  0
  -12.3390    6.8791   -9.8280 N   0  0  0  0  0  0  0  0  0  0  0  0
  -13.6477    6.5355   -9.9562 C   0  0  0  0  0  0  0  0  0  0  0  0
  -14.6397    7.5172   -9.9404 C   0  0  0  0  0  0  0  0  0  0  0  0
  -15.5712    8.2028   -9.9759 C   0  0  0  0  0  0  0  0  0  0  0  0
  -16.6895    9.1076   -9.9479 C   0  0  0  0  0  0  0  0  0  0  0  0
  -16.5005   10.1171   -8.8894 N   0  0  0  0  0  0  0  0  0  0  0  0
  -16.2552    9.5432   -7.5519 C   0  0  0  0  0  0  0  0  0  0  0  0
  -15.5202   11.1686   -9.2207 C   0  0  0  0  0  0  0  0  0  0  0  0
  -17.9718    8.3120   -9.6431 C   0  0  0  0  0  0  0  0  0  0  0  0
  -16.7897    9.7819  -11.3212 C   0  0  0  0  0  0  0  0  0  0  0  0
  -13.9717    5.3560  -10.0756 O   0  0  0  0  0  0  0  0  0  0  0  0
  -11.3911    5.8052   -9.7984 C   0  0  0  0  0  0  0  0  0  0  0  0
  -10.6913    5.8977   -8.4969 C   0  0  0  0  0  0  0  0  0  0  0  0
   -9.5304    7.9344   -6.1121 O   0  0  0  0  0  0  0  0  0  0  0  0
   -7.7151    5.3401   -7.9270 C   0  0  0  0  0  0  0  0  0  0  0  0
   -5.4935    6.1954   -6.0581 O   0  0  0  0  0  0  0  0  0  0  0  0
   -5.6019    9.7966   -4.1818 C   0  0  0  0  0  0  0  0  0  0  0  0
   -6.0655   10.2621   -5.5523 C   0  0  0  0  0  0  0  0  0  0  0  0
   -4.8500   10.4906   -6.4114 C   0  0  0  0  0  0  0  0  0  0  0  0
   -5.2421   11.0544   -7.7229 N   0  0  0  0  0  0  0  0  0  0  0  0
   -6.0776   12.3195   -7.5172 C   0  0  0  0  0  0  0  0  0  0  0  0
   -7.2805   11.9943   -6.6826 C   0  0  0  0  0  0  0  0  0  0  0  0
   -6.8394   11.4579   -5.4137 O   0  0  0  0  0  0  0  0  0  0  0  0
   -5.0930    7.7429   -1.9282 O   0  0  0  0  0  0  0  0  0  0  0  0
   -2.2469    7.8576   -1.7389 C   0  0  0  0  0  0  0  0  0  0  0  0
   -1.5008    9.1703   -1.4379 C   0  0  0  0  0  0  0  0  0  0  0  0
   -0.7413    9.6484   -2.6686 C   0  0  0  0  0  0  0  0  0  0  0  0
   -0.6685    9.1138   -5.8978 O   0  0  0  0  0  0  0  0  0  0  0  0
   -1.9925   11.9901   -9.1514 C   0  0  0  0  0  0  0  0  0  0  0  0
   -1.8747   11.1274  -10.2393 C   0  0  0  0  0  0  0  0  0  0  0  0
   -2.9113   10.1956  -10.5014 C   0  0  0  0  0  0  0  0  0  0  0  0
   -4.0142   10.1811   -9.6404 C   0  0  0  0  0  0  0  0  0  0  0  0
   -4.1158   11.0884   -8.5643 C   0  0  0  0  0  0  0  0  0  0  0  0
   -3.0691   11.9796   -8.3260 C   0  0  0  0  0  0  0  0  0  0  0  0
   -9.0608    7.4561   -9.3916 F   0  0  0  0  0  0  0  0  0  0  0  0
  1  2  1  0  0  0  0
  2  3  1  0  0  0  0
  2  5  1  0  0  0  0
  3  4  1  0  0  0  0
  5  6  4  0  0  0  0
  5 10  4  0  0  0  0
  6  7  4  0  0  0  0
  7  8  4  0  0  0  0
  8  9  4  0  0  0  0
  9 10  4  0  0  0  0
 10 11  1  0  0  0  0
 11 12  4  0  0  0  0
 11 15  4  0  0  0  0
 12 13  1  0  0  0  0
 12 68  4  0  0  0  0
 13 14  1  0  0  0  0
 15 16  1  0  0  0  0
 15 67  4  0  0  0  0
 16 17  1  0  0  0  0
 17 18  1  0  0  0  0
 17 19  1  0  0  0  0
 17 20  1  0  0  0  0
 20 21  1  0  0  0  0
 21 22  1  0  0  0  0
 22 23  1  0  0  0  0
 22 66  2  0  0  0  0
 23 24  1  0  0  0  0
 23 65  1  0  0  0  0
 24 25  1  0  0  0  0
 25 26  1  0  0  0  0
 25 63  1  0  0  0  0
 26 27  1  0  0  0  0
 26 62  2  0  0  0  0
 27 28  1  0  0  0  0
 27 55  1  0  0  0  0
 28 29  1  0  0  0  0
 29 30  1  0  0  0  0
 29 54  2  0  0  0  0
 30 31  1  0  0  0  0
 30 34  1  0  0  0  0
 31 32  1  0  0  0  0
 31 33  1  0  0  0  0
 34 35  1  0  0  0  0
 34 53  1  0  0  0  0
 35 36  1  0  0  0  0
 35 52  2  0  0  0  0
 36 37  1  0  0  0  0
 36 51  1  0  0  0  0
 36 73  1  0  0  0  0
 37 38  1  0  0  0  0
 38 39  1  0  0  0  0
 39 40  1  0  0  0  0
 39 50  1  0  0  0  0
 40 41  1  0  0  0  0
 40 49  2  0  0  0  0
 41 42  1  0  0  0  0
 42 43  1  0  0  0  0
 43 44  1  0  0  0  0
 43 47  1  0  0  0  0
 43 48  1  0  0  0  0
 44 45  1  0  0  0  0
 44 46  1  0  0  0  0
 50 51  1  0  0  0  0
 55 56  1  0  0  0  0
 56 57  1  0  0  0  0
 56 61  1  0  0  0  0
 57 58  1  0  0  0  0
 58 59  1  0  0  0  0
 58 71  1  0  0  0  0
 59 60  1  0  0  0  0
 60 61  1  0  0  0  0
 63 64  1  0  0  0  0
 64 65  1  0  0  0  0
 67 68  4  0  0  0  0
 67 72  4  0  0  0  0
 68 69  4  0  0  0  0
 69 70  4  0  0  0  0
 70 71  4  0  0  0  0
 71 72  4  0  0  0  0
M  END
$$$$
