mol_ETKDG4_108
  PyMOL3.1          3D                             0

 73 79  0  0  0  0  0  0  0  0999 V2000
    0.1477   16.6936  -11.0023 C   0  0  0  0  0  0  0  0  0  0  0  0
    0.1737   15.1930  -11.1832 C   0  0  0  0  0  0  0  0  0  0  0  0
    0.0182   14.7760  -12.5176 O   0  0  0  0  0  0  0  0  0  0  0  0
   -1.2997   14.5772  -12.9849 C   0  0  0  0  0  0  0  0  0  0  0  0
    1.4309   14.5885  -10.7091 C   0  0  0  0  0  0  0  0  0  0  0  0
    2.5738   15.2110  -10.9538 N   0  0  0  0  0  0  0  0  0  0  0  0
    3.7424   14.6597  -10.5642 C   0  0  0  0  0  0  0  0  0  0  0  0
    3.7755   13.4527   -9.8817 C   0  0  0  0  0  0  0  0  0  0  0  0
    2.5963   12.8201   -9.6266 C   0  0  0  0  0  0  0  0  0  0  0  0
    1.4267   13.3753  -10.0517 C   0  0  0  0  0  0  0  0  0  0  0  0
    0.1850   12.7140   -9.7619 C   0  0  0  0  0  0  0  0  0  0  0  0
   -0.3721   11.7138  -10.5065 N   0  0  0  0  0  0  0  0  0  0  0  0
    0.1841   11.0530  -11.6788 C   0  0  0  0  0  0  0  0  0  0  0  0
    0.6692    9.6604  -11.2647 C   0  0  0  0  0  0  0  0  0  0  0  0
   -0.6716   13.0318   -8.7210 C   0  0  0  0  0  0  0  0  0  0  0  0
   -0.5394   14.0393   -7.6374 C   0  0  0  0  0  0  0  0  0  0  0  0
    0.1063   13.5094   -6.3278 C   0  0  0  0  0  0  0  0  0  0  0  0
   -0.6146   14.1444   -5.1428 C   0  0  0  0  0  0  0  0  0  0  0  0
    1.5922   13.9073   -6.2823 C   0  0  0  0  0  0  0  0  0  0  0  0
    0.0894   12.0618   -6.1896 C   0  0  0  0  0  0  0  0  0  0  0  0
   -0.6292   11.4774   -5.0843 O   0  0  0  0  0  0  0  0  0  0  0  0
   -0.9406   10.1089   -5.0147 C   0  0  0  0  0  0  0  0  0  0  0  0
   -1.6764    9.7505   -3.7688 C   0  0  0  0  0  0  0  0  0  0  0  0
   -2.3675    8.4895   -3.9904 N   0  0  0  0  0  0  0  0  0  0  0  0
   -3.0624    8.0429   -2.8870 N   0  0  0  0  0  0  0  0  0  0  0  0
   -4.4237    7.9524   -2.9082 C   0  0  0  0  0  0  0  0  0  0  0  0
   -5.1206    8.2525   -4.2038 C   0  0  0  0  0  0  0  0  0  0  0  0
   -6.3102    7.4634   -4.3987 N   0  0  0  0  0  0  0  0  0  0  0  0
   -6.4232    6.4993   -5.3243 C   0  0  0  0  0  0  0  0  0  0  0  0
   -7.7999    5.9403   -5.4493 C   0  0  0  0  0  0  0  0  0  0  0  0
   -7.8955    4.4308   -5.0705 C   0  0  0  0  0  0  0  0  0  0  0  0
   -9.3316    3.9468   -5.2503 C   0  0  0  0  0  0  0  0  0  0  0  0
   -7.4719    4.2334   -3.6109 C   0  0  0  0  0  0  0  0  0  0  0  0
   -8.2866    6.1680   -6.7856 N   0  0  0  0  0  0  0  0  0  0  0  0
   -9.1601    7.1939   -6.9844 C   0  0  0  0  0  0  0  0  0  0  0  0
   -9.8969    7.2821   -8.2926 C   0  0  0  0  0  0  0  0  0  0  0  0
  -10.6647    8.5813   -8.4866 C   0  0  0  0  0  0  0  0  0  0  0  0
  -11.4183    8.4998   -9.7609 C   0  0  0  0  0  0  0  0  0  0  0  0
  -12.2633    7.2882   -9.7849 N   0  0  0  0  0  0  0  0  0  0  0  0
  -13.5804    7.2751  -10.0416 C   0  0  0  0  0  0  0  0  0  0  0  0
  -14.1814    8.4448  -10.4858 C   0  0  0  0  0  0  0  0  0  0  0  0
  -14.8034    9.3072  -10.8950 C   0  0  0  0  0  0  0  0  0  0  0  0
  -15.4391   10.4959  -11.3729 C   0  0  0  0  0  0  0  0  0  0  0  0
  -16.5901   10.8162  -10.5035 N   0  0  0  0  0  0  0  0  0  0  0  0
  -16.1972   11.1627   -9.1174 C   0  0  0  0  0  0  0  0  0  0  0  0
  -17.6559    9.8090  -10.5353 C   0  0  0  0  0  0  0  0  0  0  0  0
  -14.4337   11.6665  -11.3667 C   0  0  0  0  0  0  0  0  0  0  0  0
  -15.9028   10.2350  -12.8102 C   0  0  0  0  0  0  0  0  0  0  0  0
  -14.2454    6.2576   -9.9176 O   0  0  0  0  0  0  0  0  0  0  0  0
  -11.6187    6.0240   -9.5315 C   0  0  0  0  0  0  0  0  0  0  0  0
  -10.8871    6.1305   -8.2618 C   0  0  0  0  0  0  0  0  0  0  0  0
   -9.4091    7.9999   -6.0779 O   0  0  0  0  0  0  0  0  0  0  0  0
   -7.7801    5.2633   -7.8589 C   0  0  0  0  0  0  0  0  0  0  0  0
   -5.4805    6.1458   -6.0254 O   0  0  0  0  0  0  0  0  0  0  0  0
   -5.5394    9.7529   -4.1636 C   0  0  0  0  0  0  0  0  0  0  0  0
   -5.9490   10.2368   -5.5345 C   0  0  0  0  0  0  0  0  0  0  0  0
   -4.6958   10.4682   -6.3421 C   0  0  0  0  0  0  0  0  0  0  0  0
   -5.0210   11.0946   -7.6363 N   0  0  0  0  0  0  0  0  0  0  0  0
   -5.8761   12.3576   -7.4050 C   0  0  0  0  0  0  0  0  0  0  0  0
   -7.0956   12.0164   -6.6452 C   0  0  0  0  0  0  0  0  0  0  0  0
   -6.7146   11.4283   -5.3852 O   0  0  0  0  0  0  0  0  0  0  0  0
   -5.0701    7.7081   -1.9107 O   0  0  0  0  0  0  0  0  0  0  0  0
   -2.2416    7.8028   -1.7069 C   0  0  0  0  0  0  0  0  0  0  0  0
   -1.4770    9.1118   -1.3719 C   0  0  0  0  0  0  0  0  0  0  0  0
   -0.7207    9.6071   -2.5885 C   0  0  0  0  0  0  0  0  0  0  0  0
   -0.6916    9.2027   -5.8456 O   0  0  0  0  0  0  0  0  0  0  0  0
   -1.7393   12.1824   -8.8587 C   0  0  0  0  0  0  0  0  0  0  0  0
   -1.5346   11.3641   -9.9579 C   0  0  0  0  0  0  0  0  0  0  0  0
   -2.5220   10.3958  -10.2845 C   0  0  0  0  0  0  0  0  0  0  0  0
   -3.6544   10.3035   -9.4910 C   0  0  0  0  0  0  0  0  0  0  0  0
   -3.8468   11.1801   -8.4060 C   0  0  0  0  0  0  0  0  0  0  0  0
   -2.8287   12.1013   -8.1031 C   0  0  0  0  0  0  0  0  0  0  0  0
   -9.0056    7.1851   -9.3460 F   0  0  0  0  0  0  0  0  0  0  0  0
  1  2  1  0  0  0  0
  2  3  1  0  0  0  0
  2  5  1  0  0  0  0
  3  4  1  0  0  0  0
  5  6  4  0  0  0  0
  5 10  4  0  0  0  0
  6  7  4  0  0  0  0
  7  8  4  0  0  0  0
  8  9  4  0  0  0  0
  9 10  4  0  0  0  0
 10 11  1  0  0  0  0
 11 12  4  0  0  0  0
 11 15  4  0  0  0  0
 12 13  1  0  0  0  0
 12 68  4  0  0  0  0
 13 14  1  0  0  0  0
 15 16  1  0  0  0  0
 15 67  4  0  0  0  0
 16 17  1  0  0  0  0
 17 18  1  0  0  0  0
 17 19  1  0  0  0  0
 17 20  1  0  0  0  0
 20 21  1  0  0  0  0
 21 22  1  0  0  0  0
 22 23  1  0  0  0  0
 22 66  2  0  0  0  0
 23 24  1  0  0  0  0
 23 65  1  0  0  0  0
 24 25  1  0  0  0  0
 25 26  1  0  0  0  0
 25 63  1  0  0  0  0
 26 27  1  0  0  0  0
 26 62  2  0  0  0  0
 27 28  1  0  0  0  0
 27 55  1  0  0  0  0
 28 29  1  0  0  0  0
 29 30  1  0  0  0  0
 29 54  2  0  0  0  0
 30 31  1  0  0  0  0
 30 34  1  0  0  0  0
 31 32  1  0  0  0  0
 31 33  1  0  0  0  0
 34 35  1  0  0  0  0
 34 53  1  0  0  0  0
 35 36  1  0  0  0  0
 35 52  2  0  0  0  0
 36 37  1  0  0  0  0
 36 51  1  0  0  0  0
 36 73  1  0  0  0  0
 37 38  1  0  0  0  0
 38 39  1  0  0  0  0
 39 40  1  0  0  0  0
 39 50  1  0  0  0  0
 40 41  1  0  0  0  0
 40 49  2  0  0  0  0
 41 42  1  0  0  0  0
 42 43  1  0  0  0  0
 43 44  1  0  0  0  0
 43 47  1  0  0  0  0
 43 48  1  0  0  0  0
 44 45  1  0  0  0  0
 44 46  1  0  0  0  0
 50 51  1  0  0  0  0
 55 56  1  0  0  0  0
 56 57  1  0  0  0  0
 56 61  1  0  0  0  0
 57 58  1  0  0  0  0
 58 59  1  0  0  0  0
 58 71  1  0  0  0  0
 59 60  1  0  0  0  0
 60 61  1  0  0  0  0
 63 64  1  0  0  0  0
 64 65  1  0  0  0  0
 67 68  4  0  0  0  0
 67 72  4  0  0  0  0
 68 69  4  0  0  0  0
 69 70  4  0  0  0  0
 70 71  4  0  0  0  0
 71 72  4  0  0  0  0
M  END
$$$$
