mol_ETKDG3_86
  PyMOL3.1          3D                             0

 73 79  0  0  0  0  0  0  0  0999 V2000
   -0.3128   16.5152  -11.4610 C   0  0  0  0  0  0  0  0  0  0  0  0
   -0.3455   15.0092  -11.5599 C   0  0  0  0  0  0  0  0  0  0  0  0
   -0.6332   14.5068  -12.8336 O   0  0  0  0  0  0  0  0  0  0  0  0
   -1.9953   14.4491  -13.2288 C   0  0  0  0  0  0  0  0  0  0  0  0
    0.9340   14.3948  -11.1389 C   0  0  0  0  0  0  0  0  0  0  0  0
    2.0800   14.9735  -11.4802 N   0  0  0  0  0  0  0  0  0  0  0  0
    3.2624   14.4145  -11.1531 C   0  0  0  0  0  0  0  0  0  0  0  0
    3.3123   13.2214  -10.4217 C   0  0  0  0  0  0  0  0  0  0  0  0
    2.1321   12.6299  -10.0703 C   0  0  0  0  0  0  0  0  0  0  0  0
    0.9526   13.2122  -10.4387 C   0  0  0  0  0  0  0  0  0  0  0  0
   -0.2803   12.5961  -10.0480 C   0  0  0  0  0  0  0  0  0  0  0  0
   -0.9272   11.6403  -10.7745 N   0  0  0  0  0  0  0  0  0  0  0  0
   -0.5096   11.0213  -12.0382 C   0  0  0  0  0  0  0  0  0  0  0  0
    0.0866    9.6385  -11.7664 C   0  0  0  0  0  0  0  0  0  0  0  0
   -1.0251   12.9208   -8.9287 C   0  0  0  0  0  0  0  0  0  0  0  0
   -0.7740   13.9184   -7.8279 C   0  0  0  0  0  0  0  0  0  0  0  0
   -0.0245   13.3644   -6.5750 C   0  0  0  0  0  0  0  0  0  0  0  0
   -0.5811   14.0679   -5.3303 C   0  0  0  0  0  0  0  0  0  0  0  0
    1.4858   13.6908   -6.6744 C   0  0  0  0  0  0  0  0  0  0  0  0
   -0.1047   11.9453   -6.4135 C   0  0  0  0  0  0  0  0  0  0  0  0
   -0.7358   11.4031   -5.2258 O   0  0  0  0  0  0  0  0  0  0  0  0
   -1.0056   10.0338   -5.0798 C   0  0  0  0  0  0  0  0  0  0  0  0
   -1.7051    9.7107   -3.8110 C   0  0  0  0  0  0  0  0  0  0  0  0
   -2.4157    8.4513   -3.9973 N   0  0  0  0  0  0  0  0  0  0  0  0
   -3.0883    8.0246   -2.8815 N   0  0  0  0  0  0  0  0  0  0  0  0
   -4.4464    7.9461   -2.8708 C   0  0  0  0  0  0  0  0  0  0  0  0
   -5.1601    8.2760   -4.1572 C   0  0  0  0  0  0  0  0  0  0  0  0
   -6.3398    7.4638   -4.3615 N   0  0  0  0  0  0  0  0  0  0  0  0
   -6.4355    6.5144   -5.2980 C   0  0  0  0  0  0  0  0  0  0  0  0
   -7.8027    5.9431   -5.4434 C   0  0  0  0  0  0  0  0  0  0  0  0
   -7.8918    4.4297   -5.0896 C   0  0  0  0  0  0  0  0  0  0  0  0
   -9.3086    3.9197   -5.3286 C   0  0  0  0  0  0  0  0  0  0  0  0
   -7.5142    4.2227   -3.6161 C   0  0  0  0  0  0  0  0  0  0  0  0
   -8.2844    6.2122   -6.7836 N   0  0  0  0  0  0  0  0  0  0  0  0
   -9.1682    7.2417   -6.9329 C   0  0  0  0  0  0  0  0  0  0  0  0
   -9.9220    7.4009   -8.2343 C   0  0  0  0  0  0  0  0  0  0  0  0
  -10.9799    8.5058   -8.1408 C   0  0  0  0  0  0  0  0  0  0  0  0
  -11.8472    8.5090   -9.3501 C   0  0  0  0  0  0  0  0  0  0  0  0
  -12.3698    7.1500   -9.5936 N   0  0  0  0  0  0  0  0  0  0  0  0
  -13.6869    6.7889   -9.6129 C   0  0  0  0  0  0  0  0  0  0  0  0
  -14.6960    7.6471   -9.1631 C   0  0  0  0  0  0  0  0  0  0  0  0
  -15.6408    8.2285   -8.8443 C   0  0  0  0  0  0  0  0  0  0  0  0
  -16.7620    8.9650   -8.3243 C   0  0  0  0  0  0  0  0  0  0  0  0
  -16.2970   10.1338   -7.5638 N   0  0  0  0  0  0  0  0  0  0  0  0
  -15.3788    9.8033   -6.4625 C   0  0  0  0  0  0  0  0  0  0  0  0
  -15.8021   11.2481   -8.3915 C   0  0  0  0  0  0  0  0  0  0  0  0
  -17.5931    8.0530   -7.4085 C   0  0  0  0  0  0  0  0  0  0  0  0
  -17.6248    9.4225   -9.5034 C   0  0  0  0  0  0  0  0  0  0  0  0
  -13.9996    5.6646   -9.9929 O   0  0  0  0  0  0  0  0  0  0  0  0
  -11.4086    6.1141   -9.7432 C   0  0  0  0  0  0  0  0  0  0  0  0
  -10.6454    6.0850   -8.4648 C   0  0  0  0  0  0  0  0  0  0  0  0
   -9.4006    8.0109   -5.9900 O   0  0  0  0  0  0  0  0  0  0  0  0
   -7.7443    5.3716   -7.8931 C   0  0  0  0  0  0  0  0  0  0  0  0
   -5.4879    6.1822   -6.0012 O   0  0  0  0  0  0  0  0  0  0  0  0
   -5.6095    9.7584   -4.0806 C   0  0  0  0  0  0  0  0  0  0  0  0
   -6.1093   10.2346   -5.4202 C   0  0  0  0  0  0  0  0  0  0  0  0
   -4.9159   10.5029   -6.2909 C   0  0  0  0  0  0  0  0  0  0  0  0
   -5.3437   11.0886   -7.5743 N   0  0  0  0  0  0  0  0  0  0  0  0
   -6.2038   12.3272   -7.3295 C   0  0  0  0  0  0  0  0  0  0  0  0
   -7.3853   11.9572   -6.4847 C   0  0  0  0  0  0  0  0  0  0  0  0
   -6.9095   11.4010   -5.2374 O   0  0  0  0  0  0  0  0  0  0  0  0
   -5.0824    7.6996   -1.8720 O   0  0  0  0  0  0  0  0  0  0  0  0
   -2.2529    7.7832   -1.7146 C   0  0  0  0  0  0  0  0  0  0  0  0
   -1.4709    9.0918   -1.4021 C   0  0  0  0  0  0  0  0  0  0  0  0
   -0.7338    9.5689   -2.6410 C   0  0  0  0  0  0  0  0  0  0  0  0
   -0.7550    9.0813   -5.8771 O   0  0  0  0  0  0  0  0  0  0  0  0
   -2.1357   12.1149   -9.0033 C   0  0  0  0  0  0  0  0  0  0  0  0
   -2.0503   11.3215  -10.1417 C   0  0  0  0  0  0  0  0  0  0  0  0
   -3.0954   10.3957  -10.4257 C   0  0  0  0  0  0  0  0  0  0  0  0
   -4.1626   10.3289   -9.5509 C   0  0  0  0  0  0  0  0  0  0  0  0
   -4.2351   11.1765   -8.4222 C   0  0  0  0  0  0  0  0  0  0  0  0
   -3.1926   12.0537   -8.1552 C   0  0  0  0  0  0  0  0  0  0  0  0
   -9.0291    7.6876   -9.2641 F   0  0  0  0  0  0  0  0  0  0  0  0
  1  2  1  0  0  0  0
  2  3  1  0  0  0  0
  2  5  1  0  0  0  0
  3  4  1  0  0  0  0
  5  6  4  0  0  0  0
  5 10  4  0  0  0  0
  6  7  4  0  0  0  0
  7  8  4  0  0  0  0
  8  9  4  0  0  0  0
  9 10  4  0  0  0  0
 10 11  1  0  0  0  0
 11 12  4  0  0  0  0
 11 15  4  0  0  0  0
 12 13  1  0  0  0  0
 12 68  4  0  0  0  0
 13 14  1  0  0  0  0
 15 16  1  0  0  0  0
 15 67  4  0  0  0  0
 16 17  1  0  0  0  0
 17 18  1  0  0  0  0
 17 19  1  0  0  0  0
 17 20  1  0  0  0  0
 20 21  1  0  0  0  0
 21 22  1  0  0  0  0
 22 23  1  0  0  0  0
 22 66  2  0  0  0  0
 23 24  1  0  0  0  0
 23 65  1  0  0  0  0
 24 25  1  0  0  0  0
 25 26  1  0  0  0  0
 25 63  1  0  0  0  0
 26 27  1  0  0  0  0
 26 62  2  0  0  0  0
 27 28  1  0  0  0  0
 27 55  1  0  0  0  0
 28 29  1  0  0  0  0
 29 30  1  0  0  0  0
 29 54  2  0  0  0  0
 30 31  1  0  0  0  0
 30 34  1  0  0  0  0
 31 32  1  0  0  0  0
 31 33  1  0  0  0  0
 34 35  1  0  0  0  0
 34 53  1  0  0  0  0
 35 36  1  0  0  0  0
 35 52  2  0  0  0  0
 36 37  1  0  0  0  0
 36 51  1  0  0  0  0
 36 73  1  0  0  0  0
 37 38  1  0  0  0  0
 38 39  1  0  0  0  0
 39 40  1  0  0  0  0
 39 50  1  0  0  0  0
 40 41  1  0  0  0  0
 40 49  2  0  0  0  0
 41 42  1  0  0  0  0
 42 43  1  0  0  0  0
 43 44  1  0  0  0  0
 43 47  1  0  0  0  0
 43 48  1  0  0  0  0
 44 45  1  0  0  0  0
 44 46  1  0  0  0  0
 50 51  1  0  0  0  0
 55 56  1  0  0  0  0
 56 57  1  0  0  0  0
 56 61  1  0  0  0  0
 57 58  1  0  0  0  0
 58 59  1  0  0  0  0
 58 71  1  0  0  0  0
 59 60  1  0  0  0  0
 60 61  1  0  0  0  0
 63 64  1  0  0  0  0
 64 65  1  0  0  0  0
 67 68  4  0  0  0  0
 67 72  4  0  0  0  0
 68 69  4  0  0  0  0
 69 70  4  0  0  0  0
 70 71  4  0  0  0  0
 71 72  4  0  0  0  0
M  END
$$$$
