mol_ETKDG3_85
  PyMOL3.1          3D                             0

 73 79  0  0  0  0  0  0  0  0999 V2000
   -0.1131   16.5627  -11.4886 C   0  0  0  0  0  0  0  0  0  0  0  0
   -0.2276   15.0767  -11.2749 C   0  0  0  0  0  0  0  0  0  0  0  0
   -0.7682   14.4023  -12.3622 O   0  0  0  0  0  0  0  0  0  0  0  0
   -2.1908   14.3840  -12.4878 C   0  0  0  0  0  0  0  0  0  0  0  0
    1.0750   14.4491  -10.9450 C   0  0  0  0  0  0  0  0  0  0  0  0
    2.1994   15.0442  -11.3064 N   0  0  0  0  0  0  0  0  0  0  0  0
    3.3935   14.4876  -11.0383 C   0  0  0  0  0  0  0  0  0  0  0  0
    3.4806   13.2756  -10.3533 C   0  0  0  0  0  0  0  0  0  0  0  0
    2.3244   12.6634   -9.9807 C   0  0  0  0  0  0  0  0  0  0  0  0
    1.1276   13.2353  -10.2923 C   0  0  0  0  0  0  0  0  0  0  0  0
   -0.0899   12.5796   -9.9059 C   0  0  0  0  0  0  0  0  0  0  0  0
   -0.6818   11.5775  -10.6201 N   0  0  0  0  0  0  0  0  0  0  0  0
   -0.1919   10.9145  -11.8308 C   0  0  0  0  0  0  0  0  0  0  0  0
    0.4789    9.5919  -11.4523 C   0  0  0  0  0  0  0  0  0  0  0  0
   -0.8806   12.9111   -8.8223 C   0  0  0  0  0  0  0  0  0  0  0  0
   -0.6978   13.9378   -7.7437 C   0  0  0  0  0  0  0  0  0  0  0  0
    0.0310   13.4378   -6.4660 C   0  0  0  0  0  0  0  0  0  0  0  0
   -0.5840   14.1420   -5.2517 C   0  0  0  0  0  0  0  0  0  0  0  0
    1.5211   13.8283   -6.5445 C   0  0  0  0  0  0  0  0  0  0  0  0
    0.0154   12.0185   -6.2687 C   0  0  0  0  0  0  0  0  0  0  0  0
   -0.6769   11.4622   -5.1172 O   0  0  0  0  0  0  0  0  0  0  0  0
   -0.9680   10.0885   -5.0039 C   0  0  0  0  0  0  0  0  0  0  0  0
   -1.7003    9.7465   -3.7535 C   0  0  0  0  0  0  0  0  0  0  0  0
   -2.4134    8.4900   -3.9700 N   0  0  0  0  0  0  0  0  0  0  0  0
   -3.0987    8.0329   -2.8685 N   0  0  0  0  0  0  0  0  0  0  0  0
   -4.4616    7.9268   -2.8797 C   0  0  0  0  0  0  0  0  0  0  0  0
   -5.1720    8.2374   -4.1752 C   0  0  0  0  0  0  0  0  0  0  0  0
   -6.3428    7.4019   -4.3974 N   0  0  0  0  0  0  0  0  0  0  0  0
   -6.4047    6.4248   -5.3152 C   0  0  0  0  0  0  0  0  0  0  0  0
   -7.7483    5.7946   -5.4649 C   0  0  0  0  0  0  0  0  0  0  0  0
   -7.7899    4.3073   -4.9825 C   0  0  0  0  0  0  0  0  0  0  0  0
   -9.1920    3.7413   -5.1561 C   0  0  0  0  0  0  0  0  0  0  0  0
   -7.3859    4.2154   -3.5063 C   0  0  0  0  0  0  0  0  0  0  0  0
   -8.1924    5.8705   -6.8347 N   0  0  0  0  0  0  0  0  0  0  0  0
   -9.2901    6.6322   -7.1103 C   0  0  0  0  0  0  0  0  0  0  0  0
   -9.9760    6.4810   -8.4518 C   0  0  0  0  0  0  0  0  0  0  0  0
  -11.3173    7.2075   -8.5584 C   0  0  0  0  0  0  0  0  0  0  0  0
  -12.0097    6.8365   -9.8235 C   0  0  0  0  0  0  0  0  0  0  0  0
  -12.0396    5.3645  -10.0176 N   0  0  0  0  0  0  0  0  0  0  0  0
  -13.1232    4.5879  -10.2781 C   0  0  0  0  0  0  0  0  0  0  0  0
  -14.3652    5.1456  -10.4082 C   0  0  0  0  0  0  0  0  0  0  0  0
  -15.4571    5.4293  -10.5803 C   0  0  0  0  0  0  0  0  0  0  0  0
  -16.7747    5.9157  -10.7448 C   0  0  0  0  0  0  0  0  0  0  0  0
  -17.6186    5.5654   -9.6178 N   0  0  0  0  0  0  0  0  0  0  0  0
  -17.1368    4.7101   -8.5976 C   0  0  0  0  0  0  0  0  0  0  0  0
  -18.9714    5.9580   -9.5966 C   0  0  0  0  0  0  0  0  0  0  0  0
  -17.3368    5.2914  -12.0278 C   0  0  0  0  0  0  0  0  0  0  0  0
  -16.7244    7.4491  -10.8864 C   0  0  0  0  0  0  0  0  0  0  0  0
  -13.0130    3.3710  -10.4124 O   0  0  0  0  0  0  0  0  0  0  0  0
  -10.8280    4.6763   -9.9038 C   0  0  0  0  0  0  0  0  0  0  0  0
  -10.2886    5.0041   -8.5810 C   0  0  0  0  0  0  0  0  0  0  0  0
   -9.7604    7.3941   -6.2588 O   0  0  0  0  0  0  0  0  0  0  0  0
   -7.4280    5.0794   -7.8405 C   0  0  0  0  0  0  0  0  0  0  0  0
   -5.4272    6.1108   -5.9824 O   0  0  0  0  0  0  0  0  0  0  0  0
   -5.6369    9.7110   -4.1024 C   0  0  0  0  0  0  0  0  0  0  0  0
   -6.0752   10.1964   -5.4582 C   0  0  0  0  0  0  0  0  0  0  0  0
   -4.8390   10.4480   -6.2788 C   0  0  0  0  0  0  0  0  0  0  0  0
   -5.2090   11.0264   -7.5772 N   0  0  0  0  0  0  0  0  0  0  0  0
   -6.0730   12.2781   -7.3681 C   0  0  0  0  0  0  0  0  0  0  0  0
   -7.2799   11.9393   -6.5672 C   0  0  0  0  0  0  0  0  0  0  0  0
   -6.8634   11.3721   -5.3036 O   0  0  0  0  0  0  0  0  0  0  0  0
   -5.1038    7.6761   -1.8864 O   0  0  0  0  0  0  0  0  0  0  0  0
   -2.2773    7.7861   -1.6925 C   0  0  0  0  0  0  0  0  0  0  0  0
   -1.4981    9.0894   -1.3553 C   0  0  0  0  0  0  0  0  0  0  0  0
   -0.7452    9.5789   -2.5778 C   0  0  0  0  0  0  0  0  0  0  0  0
   -0.7074    9.1565   -5.8092 O   0  0  0  0  0  0  0  0  0  0  0  0
   -1.9663   12.0701   -8.9082 C   0  0  0  0  0  0  0  0  0  0  0  0
   -1.8176   11.2429  -10.0164 C   0  0  0  0  0  0  0  0  0  0  0  0
   -2.8284   10.2814  -10.3080 C   0  0  0  0  0  0  0  0  0  0  0  0
   -3.9270   10.2169   -9.4718 C   0  0  0  0  0  0  0  0  0  0  0  0
   -4.0643   11.1000   -8.3795 C   0  0  0  0  0  0  0  0  0  0  0  0
   -3.0401   12.0042   -8.1033 C   0  0  0  0  0  0  0  0  0  0  0  0
   -9.1241    6.9232   -9.4559 F   0  0  0  0  0  0  0  0  0  0  0  0
  1  2  1  0  0  0  0
  2  3  1  0  0  0  0
  2  5  1  0  0  0  0
  3  4  1  0  0  0  0
  5  6  4  0  0  0  0
  5 10  4  0  0  0  0
  6  7  4  0  0  0  0
  7  8  4  0  0  0  0
  8  9  4  0  0  0  0
  9 10  4  0  0  0  0
 10 11  1  0  0  0  0
 11 12  4  0  0  0  0
 11 15  4  0  0  0  0
 12 13  1  0  0  0  0
 12 68  4  0  0  0  0
 13 14  1  0  0  0  0
 15 16  1  0  0  0  0
 15 67  4  0  0  0  0
 16 17  1  0  0  0  0
 17 18  1  0  0  0  0
 17 19  1  0  0  0  0
 17 20  1  0  0  0  0
 20 21  1  0  0  0  0
 21 22  1  0  0  0  0
 22 23  1  0  0  0  0
 22 66  2  0  0  0  0
 23 24  1  0  0  0  0
 23 65  1  0  0  0  0
 24 25  1  0  0  0  0
 25 26  1  0  0  0  0
 25 63  1  0  0  0  0
 26 27  1  0  0  0  0
 26 62  2  0  0  0  0
 27 28  1  0  0  0  0
 27 55  1  0  0  0  0
 28 29  1  0  0  0  0
 29 30  1  0  0  0  0
 29 54  2  0  0  0  0
 30 31  1  0  0  0  0
 30 34  1  0  0  0  0
 31 32  1  0  0  0  0
 31 33  1  0  0  0  0
 34 35  1  0  0  0  0
 34 53  1  0  0  0  0
 35 36  1  0  0  0  0
 35 52  2  0  0  0  0
 36 37  1  0  0  0  0
 36 51  1  0  0  0  0
 36 73  1  0  0  0  0
 37 38  1  0  0  0  0
 38 39  1  0  0  0  0
 39 40  1  0  0  0  0
 39 50  1  0  0  0  0
 40 41  1  0  0  0  0
 40 49  2  0  0  0  0
 41 42  1  0  0  0  0
 42 43  1  0  0  0  0
 43 44  1  0  0  0  0
 43 47  1  0  0  0  0
 43 48  1  0  0  0  0
 44 45  1  0  0  0  0
 44 46  1  0  0  0  0
 50 51  1  0  0  0  0
 55 56  1  0  0  0  0
 56 57  1  0  0  0  0
 56 61  1  0  0  0  0
 57 58  1  0  0  0  0
 58 59  1  0  0  0  0
 58 71  1  0  0  0  0
 59 60  1  0  0  0  0
 60 61  1  0  0  0  0
 63 64  1  0  0  0  0
 64 65  1  0  0  0  0
 67 68  4  0  0  0  0
 67 72  4  0  0  0  0
 68 69  4  0  0  0  0
 69 70  4  0  0  0  0
 70 71  4  0  0  0  0
 71 72  4  0  0  0  0
M  END
$$$$
