mol_bioactive_2
  PyMOL3.1          3D                             0

 73 79  0  0  0  0  0  0  0  0999 V2000
   -0.0902   14.5400  -13.5868 C   0  0  0  0  0  0  0  0  0  0  0  0
   -0.1896   14.3455  -12.0847 C   0  0  0  0  0  0  0  0  0  0  0  0
   -0.5864   15.4763  -11.3899 O   0  0  0  0  0  0  0  0  0  0  0  0
   -1.9890   15.7271  -11.2774 C   0  0  0  0  0  0  0  0  0  0  0  0
    1.0983   13.9099  -11.5025 C   0  0  0  0  0  0  0  0  0  0  0  0
    2.2119   14.5115  -11.8959 N   0  0  0  0  0  0  0  0  0  0  0  0
    3.3995   14.1361  -11.3931 C   0  0  0  0  0  0  0  0  0  0  0  0
    3.4887   13.0938  -10.4659 C   0  0  0  0  0  0  0  0  0  0  0  0
    2.3467   12.4683  -10.0725 C   0  0  0  0  0  0  0  0  0  0  0  0
    1.1503   12.8842  -10.5864 C   0  0  0  0  0  0  0  0  0  0  0  0
   -0.0674   12.2626  -10.1513 C   0  0  0  0  0  0  0  0  0  0  0  0
   -0.6492   11.2212  -10.7972 N   0  0  0  0  0  0  0  0  0  0  0  0
   -0.1425   10.4955  -11.9710 C   0  0  0  0  0  0  0  0  0  0  0  0
    0.5559    9.2058  -11.5221 C   0  0  0  0  0  0  0  0  0  0  0  0
   -0.8614   12.6614   -9.0918 C   0  0  0  0  0  0  0  0  0  0  0  0
   -0.6683   13.7384   -8.0844 C   0  0  0  0  0  0  0  0  0  0  0  0
    0.0221   13.2986   -6.7570 C   0  0  0  0  0  0  0  0  0  0  0  0
   -0.6712   14.0266   -5.6038 C   0  0  0  0  0  0  0  0  0  0  0  0
    1.5123   13.7123   -6.7755 C   0  0  0  0  0  0  0  0  0  0  0  0
    0.0328   11.8784   -6.5044 C   0  0  0  0  0  0  0  0  0  0  0  0
   -0.6479   11.3600   -5.3269 O   0  0  0  0  0  0  0  0  0  0  0  0
   -0.9743   10.0004   -5.1593 C   0  0  0  0  0  0  0  0  0  0  0  0
   -1.6969    9.7078   -3.8854 C   0  0  0  0  0  0  0  0  0  0  0  0
   -2.4121    8.4500   -4.0503 N   0  0  0  0  0  0  0  0  0  0  0  0
   -3.1000    8.0409   -2.9334 N   0  0  0  0  0  0  0  0  0  0  0  0
   -4.4629    7.9564   -2.9339 C   0  0  0  0  0  0  0  0  0  0  0  0
   -5.1798    8.2998   -4.2198 C   0  0  0  0  0  0  0  0  0  0  0  0
   -6.3632    7.4735   -4.4425 N   0  0  0  0  0  0  0  0  0  0  0  0
   -6.4310    6.4584   -5.3232 C   0  0  0  0  0  0  0  0  0  0  0  0
   -7.7782    5.8259   -5.4505 C   0  0  0  0  0  0  0  0  0  0  0  0
   -7.8407    4.3325   -5.0075 C   0  0  0  0  0  0  0  0  0  0  0  0
   -9.2582    3.7878   -5.2220 C   0  0  0  0  0  0  0  0  0  0  0  0
   -7.4670    4.2053   -3.5291 C   0  0  0  0  0  0  0  0  0  0  0  0
   -8.2465    5.9699   -6.8028 N   0  0  0  0  0  0  0  0  0  0  0  0
   -9.2068    6.8971   -7.0446 C   0  0  0  0  0  0  0  0  0  0  0  0
   -9.9047    6.9207   -8.3772 C   0  0  0  0  0  0  0  0  0  0  0  0
  -10.8948    8.0634   -8.4685 C   0  0  0  0  0  0  0  0  0  0  0  0
  -11.6621    7.9478   -9.7271 C   0  0  0  0  0  0  0  0  0  0  0  0
  -12.2639    6.6085   -9.8082 N   0  0  0  0  0  0  0  0  0  0  0  0
  -13.5911    6.3657   -9.8275 C   0  0  0  0  0  0  0  0  0  0  0  0
  -14.4388    7.4265   -9.5862 C   0  0  0  0  0  0  0  0  0  0  0  0
  -15.2341    8.1808   -9.3938 C   0  0  0  0  0  0  0  0  0  0  0  0
  -16.1335    9.2418   -9.0191 C   0  0  0  0  0  0  0  0  0  0  0  0
  -16.9296    8.7817   -7.8561 N   0  0  0  0  0  0  0  0  0  0  0  0
  -16.0975    8.5235   -6.6503 C   0  0  0  0  0  0  0  0  0  0  0  0
  -17.8044    7.6295   -8.1639 C   0  0  0  0  0  0  0  0  0  0  0  0
  -15.3364   10.5085   -8.6443 C   0  0  0  0  0  0  0  0  0  0  0  0
  -17.0286    9.5384  -10.2260 C   0  0  0  0  0  0  0  0  0  0  0  0
  -14.0337    5.2425  -10.0069 O   0  0  0  0  0  0  0  0  0  0  0  0
  -11.3783    5.4859   -9.7625 C   0  0  0  0  0  0  0  0  0  0  0  0
  -10.6645    5.5959   -8.4615 C   0  0  0  0  0  0  0  0  0  0  0  0
   -9.5498    7.6919   -6.1540 O   0  0  0  0  0  0  0  0  0  0  0  0
   -7.6325    5.0892   -7.8399 C   0  0  0  0  0  0  0  0  0  0  0  0
   -5.4663    6.1146   -5.9998 O   0  0  0  0  0  0  0  0  0  0  0  0
   -5.5877    9.7896   -4.1029 C   0  0  0  0  0  0  0  0  0  0  0  0
   -5.6559   10.6003   -5.3682 C   0  0  0  0  0  0  0  0  0  0  0  0
   -4.9981    9.9890   -6.5861 C   0  0  0  0  0  0  0  0  0  0  0  0
   -5.2354   10.7992   -7.7746 N   0  0  0  0  0  0  0  0  0  0  0  0
   -6.0410   12.0748   -7.5515 C   0  0  0  0  0  0  0  0  0  0  0  0
   -7.2044   11.8327   -6.7102 C   0  0  0  0  0  0  0  0  0  0  0  0
   -7.0195   10.8824   -5.6555 O   0  0  0  0  0  0  0  0  0  0  0  0
   -5.1020    7.7134   -1.9358 O   0  0  0  0  0  0  0  0  0  0  0  0
   -2.2770    7.8413   -1.7390 C   0  0  0  0  0  0  0  0  0  0  0  0
   -1.4931    9.1547   -1.4622 C   0  0  0  0  0  0  0  0  0  0  0  0
   -0.7406    9.5960   -2.6961 C   0  0  0  0  0  0  0  0  0  0  0  0
   -0.7456    9.0466   -5.9476 O   0  0  0  0  0  0  0  0  0  0  0  0
   -1.9389   11.8141   -9.1286 C   0  0  0  0  0  0  0  0  0  0  0  0
   -1.7775   10.9237  -10.1787 C   0  0  0  0  0  0  0  0  0  0  0  0
   -2.7730    9.9387  -10.4136 C   0  0  0  0  0  0  0  0  0  0  0  0
   -3.8815    9.9055   -9.5781 C   0  0  0  0  0  0  0  0  0  0  0  0
   -4.0412   10.8519   -8.5496 C   0  0  0  0  0  0  0  0  0  0  0  0
   -3.0135   11.7871   -8.3274 C   0  0  0  0  0  0  0  0  0  0  0  0
   -8.9796    7.0518   -9.4044 F   0  0  0  0  0  0  0  0  0  0  0  0
  1  2  1  0  0  0  0
  2  3  1  0  0  0  0
  2  5  1  0  0  0  0
  3  4  1  0  0  0  0
  5  6  4  0  0  0  0
  5 10  4  0  0  0  0
  6  7  4  0  0  0  0
  7  8  4  0  0  0  0
  8  9  4  0  0  0  0
  9 10  4  0  0  0  0
 10 11  1  0  0  0  0
 11 12  4  0  0  0  0
 11 15  4  0  0  0  0
 12 13  1  0  0  0  0
 12 68  4  0  0  0  0
 13 14  1  0  0  0  0
 15 16  1  0  0  0  0
 15 67  4  0  0  0  0
 16 17  1  0  0  0  0
 17 18  1  0  0  0  0
 17 19  1  0  0  0  0
 17 20  1  0  0  0  0
 20 21  1  0  0  0  0
 21 22  1  0  0  0  0
 22 23  1  0  0  0  0
 22 66  2  0  0  0  0
 23 24  1  0  0  0  0
 23 65  1  0  0  0  0
 24 25  1  0  0  0  0
 25 26  1  0  0  0  0
 25 63  1  0  0  0  0
 26 27  1  0  0  0  0
 26 62  2  0  0  0  0
 27 28  1  0  0  0  0
 27 55  1  0  0  0  0
 28 29  1  0  0  0  0
 29 30  1  0  0  0  0
 29 54  2  0  0  0  0
 30 31  1  0  0  0  0
 30 34  1  0  0  0  0
 31 32  1  0  0  0  0
 31 33  1  0  0  0  0
 34 35  1  0  0  0  0
 34 53  1  0  0  0  0
 35 36  1  0  0  0  0
 35 52  2  0  0  0  0
 36 37  1  0  0  0  0
 36 51  1  0  0  0  0
 36 73  1  0  0  0  0
 37 38  1  0  0  0  0
 38 39  1  0  0  0  0
 39 40  1  0  0  0  0
 39 50  1  0  0  0  0
 40 41  1  0  0  0  0
 40 49  2  0  0  0  0
 41 42  1  0  0  0  0
 42 43  1  0  0  0  0
 43 44  1  0  0  0  0
 43 47  1  0  0  0  0
 43 48  1  0  0  0  0
 44 45  1  0  0  0  0
 44 46  1  0  0  0  0
 50 51  1  0  0  0  0
 55 56  1  0  0  0  0
 56 57  1  0  0  0  0
 56 61  1  0  0  0  0
 57 58  1  0  0  0  0
 58 59  1  0  0  0  0
 58 71  1  0  0  0  0
 59 60  1  0  0  0  0
 60 61  1  0  0  0  0
 63 64  1  0  0  0  0
 64 65  1  0  0  0  0
 67 68  4  0  0  0  0
 67 72  4  0  0  0  0
 68 69  4  0  0  0  0
 69 70  4  0  0  0  0
 70 71  4  0  0  0  0
 71 72  4  0  0  0  0
M  END
$$$$
