mol_ETKDG2_51
  PyMOL3.1          3D                             0

 73 79  0  0  0  0  0  0  0  0999 V2000
   -0.1524   16.3451  -12.0659 C   0  0  0  0  0  0  0  0  0  0  0  0
   -0.2736   14.8930  -11.6724 C   0  0  0  0  0  0  0  0  0  0  0  0
   -0.8213   14.1284  -12.7201 O   0  0  0  0  0  0  0  0  0  0  0  0
   -2.2436   14.0786  -12.7857 C   0  0  0  0  0  0  0  0  0  0  0  0
    1.0264   14.2881  -11.2980 C   0  0  0  0  0  0  0  0  0  0  0  0
    2.1502   14.8789  -11.6890 N   0  0  0  0  0  0  0  0  0  0  0  0
    3.3465   14.3572  -11.3870 C   0  0  0  0  0  0  0  0  0  0  0  0
    3.4457   13.1900  -10.6351 C   0  0  0  0  0  0  0  0  0  0  0  0
    2.3060   12.5764  -10.2296 C   0  0  0  0  0  0  0  0  0  0  0  0
    1.0986   13.1077  -10.5758 C   0  0  0  0  0  0  0  0  0  0  0  0
   -0.1113   12.4545  -10.1479 C   0  0  0  0  0  0  0  0  0  0  0  0
   -0.7121   11.4288  -10.8165 N   0  0  0  0  0  0  0  0  0  0  0  0
   -0.2337   10.7296  -12.0178 C   0  0  0  0  0  0  0  0  0  0  0  0
    0.4120    9.4013  -11.6159 C   0  0  0  0  0  0  0  0  0  0  0  0
   -0.8911   12.8126   -9.0511 C   0  0  0  0  0  0  0  0  0  0  0  0
   -0.6738   13.8433   -7.9948 C   0  0  0  0  0  0  0  0  0  0  0  0
    0.0218   13.3394   -6.6927 C   0  0  0  0  0  0  0  0  0  0  0  0
   -0.6152   14.0571   -5.5034 C   0  0  0  0  0  0  0  0  0  0  0  0
    1.5234   13.7037   -6.7298 C   0  0  0  0  0  0  0  0  0  0  0  0
   -0.0090   11.9127   -6.4706 C   0  0  0  0  0  0  0  0  0  0  0  0
   -0.6738   11.3885   -5.2833 O   0  0  0  0  0  0  0  0  0  0  0  0
   -0.9760   10.0202   -5.1239 C   0  0  0  0  0  0  0  0  0  0  0  0
   -1.6955    9.7112   -3.8529 C   0  0  0  0  0  0  0  0  0  0  0  0
   -2.4081    8.4523   -4.0337 N   0  0  0  0  0  0  0  0  0  0  0  0
   -3.0930    8.0387   -2.9175 N   0  0  0  0  0  0  0  0  0  0  0  0
   -4.4558    7.9512   -2.9125 C   0  0  0  0  0  0  0  0  0  0  0  0
   -5.1665    8.2580   -4.2051 C   0  0  0  0  0  0  0  0  0  0  0  0
   -6.3517    7.4461   -4.3870 N   0  0  0  0  0  0  0  0  0  0  0  0
   -6.4522    6.4777   -5.3011 C   0  0  0  0  0  0  0  0  0  0  0  0
   -7.8130    5.8779   -5.4288 C   0  0  0  0  0  0  0  0  0  0  0  0
   -7.8843    4.3736   -5.0287 C   0  0  0  0  0  0  0  0  0  0  0  0
   -9.3009    3.8501   -5.2363 C   0  0  0  0  0  0  0  0  0  0  0  0
   -7.4815    4.2029   -3.5575 C   0  0  0  0  0  0  0  0  0  0  0  0
   -8.2932    6.0729   -6.7744 N   0  0  0  0  0  0  0  0  0  0  0  0
   -9.2442    7.0223   -6.9733 C   0  0  0  0  0  0  0  0  0  0  0  0
   -9.9781    7.0782   -8.2927 C   0  0  0  0  0  0  0  0  0  0  0  0
  -11.0184    8.1902   -8.3286 C   0  0  0  0  0  0  0  0  0  0  0  0
  -11.7858    8.1109   -9.5974 C   0  0  0  0  0  0  0  0  0  0  0  0
  -12.3388    6.7541   -9.7512 N   0  0  0  0  0  0  0  0  0  0  0  0
  -13.6495    6.4680   -9.8680 C   0  0  0  0  0  0  0  0  0  0  0  0
  -14.5750    7.4977   -9.7286 C   0  0  0  0  0  0  0  0  0  0  0  0
  -15.4096    8.2852   -9.6574 C   0  0  0  0  0  0  0  0  0  0  0  0
  -16.3655    9.3394   -9.4568 C   0  0  0  0  0  0  0  0  0  0  0  0
  -15.6761   10.5450   -8.9650 N   0  0  0  0  0  0  0  0  0  0  0  0
  -14.9642   10.3486   -7.6870 C   0  0  0  0  0  0  0  0  0  0  0  0
  -14.8351   11.2173   -9.9744 C   0  0  0  0  0  0  0  0  0  0  0  0
  -17.4044    8.8923   -8.4230 C   0  0  0  0  0  0  0  0  0  0  0  0
  -17.0507    9.6354  -10.7906 C   0  0  0  0  0  0  0  0  0  0  0  0
  -14.0194    5.3208  -10.0649 O   0  0  0  0  0  0  0  0  0  0  0  0
  -11.4199    5.6522   -9.7080 C   0  0  0  0  0  0  0  0  0  0  0  0
  -10.7169    5.7504   -8.4119 C   0  0  0  0  0  0  0  0  0  0  0  0
   -9.5477    7.8055   -6.0640 O   0  0  0  0  0  0  0  0  0  0  0  0
   -7.7041    5.2189   -7.8454 C   0  0  0  0  0  0  0  0  0  0  0  0
   -5.5029    6.1388   -6.0059 O   0  0  0  0  0  0  0  0  0  0  0  0
   -5.5945    9.7449   -4.1507 C   0  0  0  0  0  0  0  0  0  0  0  0
   -6.0313   10.2221   -5.5165 C   0  0  0  0  0  0  0  0  0  0  0  0
   -4.8039   10.4490   -6.3540 C   0  0  0  0  0  0  0  0  0  0  0  0
   -5.1887   10.9933   -7.6584 N   0  0  0  0  0  0  0  0  0  0  0  0
   -6.0374   12.2627   -7.4672 C   0  0  0  0  0  0  0  0  0  0  0  0
   -7.2321   11.9536   -6.6314 C   0  0  0  0  0  0  0  0  0  0  0  0
   -6.7998   11.4167   -5.3713 O   0  0  0  0  0  0  0  0  0  0  0  0
   -5.0929    7.7141   -1.9154 O   0  0  0  0  0  0  0  0  0  0  0  0
   -2.2721    7.8180   -1.7289 C   0  0  0  0  0  0  0  0  0  0  0  0
   -1.4886    9.1252   -1.4328 C   0  0  0  0  0  0  0  0  0  0  0  0
   -0.7335    9.5787   -2.6722 C   0  0  0  0  0  0  0  0  0  0  0  0
   -0.7322    9.0707   -5.9113 O   0  0  0  0  0  0  0  0  0  0  0  0
   -1.9738   11.9729   -9.0970 C   0  0  0  0  0  0  0  0  0  0  0  0
   -1.8399   11.1147  -10.1796 C   0  0  0  0  0  0  0  0  0  0  0  0
   -2.8498   10.1432  -10.4191 C   0  0  0  0  0  0  0  0  0  0  0  0
   -3.9352   10.1020   -9.5576 C   0  0  0  0  0  0  0  0  0  0  0  0
   -4.0632   11.0268   -8.4851 C   0  0  0  0  0  0  0  0  0  0  0  0
   -3.0259   11.9360   -8.2732 C   0  0  0  0  0  0  0  0  0  0  0  0
   -9.0811    7.2689   -9.3261 F   0  0  0  0  0  0  0  0  0  0  0  0
  1  2  1  0  0  0  0
  2  3  1  0  0  0  0
  2  5  1  0  0  0  0
  3  4  1  0  0  0  0
  5  6  4  0  0  0  0
  5 10  4  0  0  0  0
  6  7  4  0  0  0  0
  7  8  4  0  0  0  0
  8  9  4  0  0  0  0
  9 10  4  0  0  0  0
 10 11  1  0  0  0  0
 11 12  4  0  0  0  0
 11 15  4  0  0  0  0
 12 13  1  0  0  0  0
 12 68  4  0  0  0  0
 13 14  1  0  0  0  0
 15 16  1  0  0  0  0
 15 67  4  0  0  0  0
 16 17  1  0  0  0  0
 17 18  1  0  0  0  0
 17 19  1  0  0  0  0
 17 20  1  0  0  0  0
 20 21  1  0  0  0  0
 21 22  1  0  0  0  0
 22 23  1  0  0  0  0
 22 66  2  0  0  0  0
 23 24  1  0  0  0  0
 23 65  1  0  0  0  0
 24 25  1  0  0  0  0
 25 26  1  0  0  0  0
 25 63  1  0  0  0  0
 26 27  1  0  0  0  0
 26 62  2  0  0  0  0
 27 28  1  0  0  0  0
 27 55  1  0  0  0  0
 28 29  1  0  0  0  0
 29 30  1  0  0  0  0
 29 54  2  0  0  0  0
 30 31  1  0  0  0  0
 30 34  1  0  0  0  0
 31 32  1  0  0  0  0
 31 33  1  0  0  0  0
 34 35  1  0  0  0  0
 34 53  1  0  0  0  0
 35 36  1  0  0  0  0
 35 52  2  0  0  0  0
 36 37  1  0  0  0  0
 36 51  1  0  0  0  0
 36 73  1  0  0  0  0
 37 38  1  0  0  0  0
 38 39  1  0  0  0  0
 39 40  1  0  0  0  0
 39 50  1  0  0  0  0
 40 41  1  0  0  0  0
 40 49  2  0  0  0  0
 41 42  1  0  0  0  0
 42 43  1  0  0  0  0
 43 44  1  0  0  0  0
 43 47  1  0  0  0  0
 43 48  1  0  0  0  0
 44 45  1  0  0  0  0
 44 46  1  0  0  0  0
 50 51  1  0  0  0  0
 55 56  1  0  0  0  0
 56 57  1  0  0  0  0
 56 61  1  0  0  0  0
 57 58  1  0  0  0  0
 58 59  1  0  0  0  0
 58 71  1  0  0  0  0
 59 60  1  0  0  0  0
 60 61  1  0  0  0  0
 63 64  1  0  0  0  0
 64 65  1  0  0  0  0
 67 68  4  0  0  0  0
 67 72  4  0  0  0  0
 68 69  4  0  0  0  0
 69 70  4  0  0  0  0
 70 71  4  0  0  0  0
 71 72  4  0  0  0  0
M  END
$$$$
