mol_ETKDG1_32
  PyMOL3.1          3D                             0

 73 79  0  0  0  0  0  0  0  0999 V2000
   -0.7430   15.7954  -11.7498 C   0  0  0  0  0  0  0  0  0  0  0  0
   -0.3562   14.4430  -12.3414 C   0  0  0  0  0  0  0  0  0  0  0  0
   -0.2429   14.4580  -13.7480 O   0  0  0  0  0  0  0  0  0  0  0  0
   -1.1054   13.5974  -14.4701 C   0  0  0  0  0  0  0  0  0  0  0  0
    0.9285   13.9568  -11.7709 C   0  0  0  0  0  0  0  0  0  0  0  0
    2.0410   14.5338  -12.1825 N   0  0  0  0  0  0  0  0  0  0  0  0
    3.2324   14.1187  -11.7345 C   0  0  0  0  0  0  0  0  0  0  0  0
    3.3250   13.0753  -10.8113 C   0  0  0  0  0  0  0  0  0  0  0  0
    2.1827   12.4841  -10.3803 C   0  0  0  0  0  0  0  0  0  0  0  0
    0.9794   12.9173  -10.8597 C   0  0  0  0  0  0  0  0  0  0  0  0
   -0.2310   12.3127  -10.3804 C   0  0  0  0  0  0  0  0  0  0  0  0
   -0.9115   11.3321  -11.0450 N   0  0  0  0  0  0  0  0  0  0  0  0
   -0.5308   10.6729  -12.3036 C   0  0  0  0  0  0  0  0  0  0  0  0
    0.0453    9.2814  -12.0301 C   0  0  0  0  0  0  0  0  0  0  0  0
   -0.9430   12.6846   -9.2350 C   0  0  0  0  0  0  0  0  0  0  0  0
   -0.6523   13.7158   -8.1811 C   0  0  0  0  0  0  0  0  0  0  0  0
    0.0974   13.2261   -6.9019 C   0  0  0  0  0  0  0  0  0  0  0  0
   -0.4432   13.9911   -5.6849 C   0  0  0  0  0  0  0  0  0  0  0  0
    1.6131   13.5110   -7.0069 C   0  0  0  0  0  0  0  0  0  0  0  0
    0.0044   11.8032   -6.6441 C   0  0  0  0  0  0  0  0  0  0  0  0
   -0.6280   11.3290   -5.4025 O   0  0  0  0  0  0  0  0  0  0  0  0
   -0.9007    9.9698   -5.1678 C   0  0  0  0  0  0  0  0  0  0  0  0
   -1.6165    9.7073   -3.8713 C   0  0  0  0  0  0  0  0  0  0  0  0
   -2.3457    8.4625   -4.0172 N   0  0  0  0  0  0  0  0  0  0  0  0
   -3.0261    8.0661   -2.8876 N   0  0  0  0  0  0  0  0  0  0  0  0
   -4.3885    7.9906   -2.8779 C   0  0  0  0  0  0  0  0  0  0  0  0
   -5.0998    8.2970   -4.1686 C   0  0  0  0  0  0  0  0  0  0  0  0
   -6.2894    7.5015   -4.3564 N   0  0  0  0  0  0  0  0  0  0  0  0
   -6.3875    6.5455   -5.2786 C   0  0  0  0  0  0  0  0  0  0  0  0
   -7.7612    5.9780   -5.4379 C   0  0  0  0  0  0  0  0  0  0  0  0
   -7.8453    4.4602   -5.0848 C   0  0  0  0  0  0  0  0  0  0  0  0
   -9.2426    3.9347   -5.3559 C   0  0  0  0  0  0  0  0  0  0  0  0
   -7.4924    4.2480   -3.6032 C   0  0  0  0  0  0  0  0  0  0  0  0
   -8.2071    6.2429   -6.7854 N   0  0  0  0  0  0  0  0  0  0  0  0
   -9.1630    7.2004   -6.9644 C   0  0  0  0  0  0  0  0  0  0  0  0
   -9.8358    7.3535   -8.3135 C   0  0  0  0  0  0  0  0  0  0  0  0
  -11.1039    8.2175   -8.2172 C   0  0  0  0  0  0  0  0  0  0  0  0
  -11.8707    8.1839   -9.5001 C   0  0  0  0  0  0  0  0  0  0  0  0
  -12.0642    6.7871   -9.9399 N   0  0  0  0  0  0  0  0  0  0  0  0
  -13.2271    6.1216  -10.1361 C   0  0  0  0  0  0  0  0  0  0  0  0
  -14.4666    6.6974   -9.8519 C   0  0  0  0  0  0  0  0  0  0  0  0
  -15.5733    7.0429   -9.7226 C   0  0  0  0  0  0  0  0  0  0  0  0
  -16.8802    7.5330   -9.4663 C   0  0  0  0  0  0  0  0  0  0  0  0
  -16.8044    8.8615   -8.8531 N   0  0  0  0  0  0  0  0  0  0  0  0
  -16.2058    8.8550   -7.5115 C   0  0  0  0  0  0  0  0  0  0  0  0
  -16.1920    9.8860   -9.7176 C   0  0  0  0  0  0  0  0  0  0  0  0
  -17.6092    6.5707   -8.5083 C   0  0  0  0  0  0  0  0  0  0  0  0
  -17.6301    7.6142  -10.8052 C   0  0  0  0  0  0  0  0  0  0  0  0
  -13.2165    4.9682  -10.5645 O   0  0  0  0  0  0  0  0  0  0  0  0
  -10.8893    6.0051  -10.0788 C   0  0  0  0  0  0  0  0  0  0  0  0
  -10.2896    5.9721   -8.7285 C   0  0  0  0  0  0  0  0  0  0  0  0
   -9.5091    7.9279   -6.0256 O   0  0  0  0  0  0  0  0  0  0  0  0
   -7.5548    5.4700   -7.8723 C   0  0  0  0  0  0  0  0  0  0  0  0
   -5.4334    6.1902   -5.9635 O   0  0  0  0  0  0  0  0  0  0  0  0
   -5.5326    9.7941   -4.1311 C   0  0  0  0  0  0  0  0  0  0  0  0
   -6.0222   10.2418   -5.5038 C   0  0  0  0  0  0  0  0  0  0  0  0
   -4.8144   10.4581   -6.3783 C   0  0  0  0  0  0  0  0  0  0  0  0
   -5.2453   10.9625   -7.6937 N   0  0  0  0  0  0  0  0  0  0  0  0
   -6.0924   12.2196   -7.5226 C   0  0  0  0  0  0  0  0  0  0  0  0
   -7.2737   11.9206   -6.6472 C   0  0  0  0  0  0  0  0  0  0  0  0
   -6.8059   11.4216   -5.3774 O   0  0  0  0  0  0  0  0  0  0  0  0
   -5.0318    7.7582   -1.8831 O   0  0  0  0  0  0  0  0  0  0  0  0
   -2.1930    7.8521   -1.7132 C   0  0  0  0  0  0  0  0  0  0  0  0
   -1.3967    9.1570   -1.4397 C   0  0  0  0  0  0  0  0  0  0  0  0
   -0.6456    9.5899   -2.6940 C   0  0  0  0  0  0  0  0  0  0  0  0
   -0.6461    8.9836   -5.9095 O   0  0  0  0  0  0  0  0  0  0  0  0
   -2.0599   11.8858   -9.2462 C   0  0  0  0  0  0  0  0  0  0  0  0
   -2.0138   11.0527  -10.3625 C   0  0  0  0  0  0  0  0  0  0  0  0
   -3.0735   10.1329  -10.5814 C   0  0  0  0  0  0  0  0  0  0  0  0
   -4.1276   10.1103   -9.6745 C   0  0  0  0  0  0  0  0  0  0  0  0
   -4.1596   10.9939   -8.5720 C   0  0  0  0  0  0  0  0  0  0  0  0
   -3.0892   11.8635   -8.3657 C   0  0  0  0  0  0  0  0  0  0  0  0
   -8.9235    7.8887   -9.2158 F   0  0  0  0  0  0  0  0  0  0  0  0
  1  2  1  0  0  0  0
  2  3  1  0  0  0  0
  2  5  1  0  0  0  0
  3  4  1  0  0  0  0
  5  6  4  0  0  0  0
  5 10  4  0  0  0  0
  6  7  4  0  0  0  0
  7  8  4  0  0  0  0
  8  9  4  0  0  0  0
  9 10  4  0  0  0  0
 10 11  1  0  0  0  0
 11 12  4  0  0  0  0
 11 15  4  0  0  0  0
 12 13  1  0  0  0  0
 12 68  4  0  0  0  0
 13 14  1  0  0  0  0
 15 16  1  0  0  0  0
 15 67  4  0  0  0  0
 16 17  1  0  0  0  0
 17 18  1  0  0  0  0
 17 19  1  0  0  0  0
 17 20  1  0  0  0  0
 20 21  1  0  0  0  0
 21 22  1  0  0  0  0
 22 23  1  0  0  0  0
 22 66  2  0  0  0  0
 23 24  1  0  0  0  0
 23 65  1  0  0  0  0
 24 25  1  0  0  0  0
 25 26  1  0  0  0  0
 25 63  1  0  0  0  0
 26 27  1  0  0  0  0
 26 62  2  0  0  0  0
 27 28  1  0  0  0  0
 27 55  1  0  0  0  0
 28 29  1  0  0  0  0
 29 30  1  0  0  0  0
 29 54  2  0  0  0  0
 30 31  1  0  0  0  0
 30 34  1  0  0  0  0
 31 32  1  0  0  0  0
 31 33  1  0  0  0  0
 34 35  1  0  0  0  0
 34 53  1  0  0  0  0
 35 36  1  0  0  0  0
 35 52  2  0  0  0  0
 36 37  1  0  0  0  0
 36 51  1  0  0  0  0
 36 73  1  0  0  0  0
 37 38  1  0  0  0  0
 38 39  1  0  0  0  0
 39 40  1  0  0  0  0
 39 50  1  0  0  0  0
 40 41  1  0  0  0  0
 40 49  2  0  0  0  0
 41 42  1  0  0  0  0
 42 43  1  0  0  0  0
 43 44  1  0  0  0  0
 43 47  1  0  0  0  0
 43 48  1  0  0  0  0
 44 45  1  0  0  0  0
 44 46  1  0  0  0  0
 50 51  1  0  0  0  0
 55 56  1  0  0  0  0
 56 57  1  0  0  0  0
 56 61  1  0  0  0  0
 57 58  1  0  0  0  0
 58 59  1  0  0  0  0
 58 71  1  0  0  0  0
 59 60  1  0  0  0  0
 60 61  1  0  0  0  0
 63 64  1  0  0  0  0
 64 65  1  0  0  0  0
 67 68  4  0  0  0  0
 67 72  4  0  0  0  0
 68 69  4  0  0  0  0
 69 70  4  0  0  0  0
 70 71  4  0  0  0  0
 71 72  4  0  0  0  0
M  END
$$$$
