mol_ETKDG1_28
  PyMOL3.1          3D                             0

 73 79  0  0  0  0  0  0  0  0999 V2000
   -0.1949   14.8686  -13.2778 C   0  0  0  0  0  0  0  0  0  0  0  0
   -0.1438   14.7501  -11.7645 C   0  0  0  0  0  0  0  0  0  0  0  0
   -0.2987   15.9633  -11.0874 O   0  0  0  0  0  0  0  0  0  0  0  0
   -1.6185   16.3891  -10.7704 C   0  0  0  0  0  0  0  0  0  0  0  0
    1.1237   14.1416  -11.3117 C   0  0  0  0  0  0  0  0  0  0  0  0
    2.2575   14.7143  -11.6733 N   0  0  0  0  0  0  0  0  0  0  0  0
    3.4332   14.1895  -11.3050 C   0  0  0  0  0  0  0  0  0  0  0  0
    3.4919   13.0171  -10.5428 C   0  0  0  0  0  0  0  0  0  0  0  0
    2.3287   12.4238  -10.1752 C   0  0  0  0  0  0  0  0  0  0  0  0
    1.1423   12.9902  -10.5576 C   0  0  0  0  0  0  0  0  0  0  0  0
   -0.0899   12.3927  -10.1379 C   0  0  0  0  0  0  0  0  0  0  0  0
   -0.7330   11.4028  -10.8182 N   0  0  0  0  0  0  0  0  0  0  0  0
   -0.2968   10.7439  -12.0537 C   0  0  0  0  0  0  0  0  0  0  0  0
    0.3051    9.3712  -11.7362 C   0  0  0  0  0  0  0  0  0  0  0  0
   -0.8540   12.7670   -9.0308 C   0  0  0  0  0  0  0  0  0  0  0  0
   -0.6263   13.8056   -7.9813 C   0  0  0  0  0  0  0  0  0  0  0  0
    0.0975   13.3202   -6.6938 C   0  0  0  0  0  0  0  0  0  0  0  0
   -0.4856   14.0627   -5.4852 C   0  0  0  0  0  0  0  0  0  0  0  0
    1.6073   13.6283   -6.7638 C   0  0  0  0  0  0  0  0  0  0  0  0
    0.0289   11.9000   -6.4537 C   0  0  0  0  0  0  0  0  0  0  0  0
   -0.6558   11.3898   -5.2646 O   0  0  0  0  0  0  0  0  0  0  0  0
   -0.9553   10.0261   -5.0940 C   0  0  0  0  0  0  0  0  0  0  0  0
   -1.6770    9.7275   -3.8198 C   0  0  0  0  0  0  0  0  0  0  0  0
   -2.3819    8.4634   -3.9920 N   0  0  0  0  0  0  0  0  0  0  0  0
   -3.0593    8.0409   -2.8728 N   0  0  0  0  0  0  0  0  0  0  0  0
   -4.4186    7.9460   -2.8684 C   0  0  0  0  0  0  0  0  0  0  0  0
   -5.1299    8.2458   -4.1632 C   0  0  0  0  0  0  0  0  0  0  0  0
   -6.3191    7.4442   -4.3556 N   0  0  0  0  0  0  0  0  0  0  0  0
   -6.4135    6.4769   -5.2635 C   0  0  0  0  0  0  0  0  0  0  0  0
   -7.7842    5.9010   -5.4031 C   0  0  0  0  0  0  0  0  0  0  0  0
   -7.8635    4.3912   -5.0123 C   0  0  0  0  0  0  0  0  0  0  0  0
   -9.2590    3.8473   -5.2767 C   0  0  0  0  0  0  0  0  0  0  0  0
   -7.5224    4.2271   -3.5221 C   0  0  0  0  0  0  0  0  0  0  0  0
   -8.2540    6.1225   -6.7500 N   0  0  0  0  0  0  0  0  0  0  0  0
   -9.2121    7.0711   -6.9393 C   0  0  0  0  0  0  0  0  0  0  0  0
   -9.9356    7.1348   -8.2653 C   0  0  0  0  0  0  0  0  0  0  0  0
  -11.0603    8.1681   -8.2705 C   0  0  0  0  0  0  0  0  0  0  0  0
  -11.8327    8.0668   -9.5325 C   0  0  0  0  0  0  0  0  0  0  0  0
  -12.2721    6.6752   -9.7564 N   0  0  0  0  0  0  0  0  0  0  0  0
  -13.5483    6.2631   -9.9011 C   0  0  0  0  0  0  0  0  0  0  0  0
  -14.5680    7.1677   -9.6950 C   0  0  0  0  0  0  0  0  0  0  0  0
  -15.5010    7.7998   -9.5547 C   0  0  0  0  0  0  0  0  0  0  0  0
  -16.5245    8.7509   -9.2340 C   0  0  0  0  0  0  0  0  0  0  0  0
  -17.4531    8.1906   -8.2398 N   0  0  0  0  0  0  0  0  0  0  0  0
  -16.8170    7.3181   -7.2438 C   0  0  0  0  0  0  0  0  0  0  0  0
  -18.6790    7.6031   -8.7415 C   0  0  0  0  0  0  0  0  0  0  0  0
  -15.8995   10.0416   -8.6192 C   0  0  0  0  0  0  0  0  0  0  0  0
  -17.2268    9.1004  -10.5401 C   0  0  0  0  0  0  0  0  0  0  0  0
  -13.8238    5.1034  -10.1785 O   0  0  0  0  0  0  0  0  0  0  0  0
  -11.2556    5.6668   -9.7514 C   0  0  0  0  0  0  0  0  0  0  0  0
  -10.5848    5.7694   -8.4349 C   0  0  0  0  0  0  0  0  0  0  0  0
   -9.5324    7.8410   -6.0281 O   0  0  0  0  0  0  0  0  0  0  0  0
   -7.6429    5.2990   -7.8241 C   0  0  0  0  0  0  0  0  0  0  0  0
   -5.4628    6.1224   -5.9517 O   0  0  0  0  0  0  0  0  0  0  0  0
   -5.5618    9.7385   -4.1167 C   0  0  0  0  0  0  0  0  0  0  0  0
   -6.0217   10.2104   -5.4806 C   0  0  0  0  0  0  0  0  0  0  0  0
   -4.7952   10.4224   -6.3288 C   0  0  0  0  0  0  0  0  0  0  0  0
   -5.1794   10.9968   -7.6266 N   0  0  0  0  0  0  0  0  0  0  0  0
   -6.0143   12.2675   -7.4153 C   0  0  0  0  0  0  0  0  0  0  0  0
   -7.2151   11.9550   -6.5778 C   0  0  0  0  0  0  0  0  0  0  0  0
   -6.7854   11.3971   -5.3247 O   0  0  0  0  0  0  0  0  0  0  0  0
   -5.0600    7.7030   -1.8805 O   0  0  0  0  0  0  0  0  0  0  0  0
   -2.2287    7.8220   -1.6984 C   0  0  0  0  0  0  0  0  0  0  0  0
   -1.4602    9.1399   -1.3992 C   0  0  0  0  0  0  0  0  0  0  0  0
   -0.7137    9.6084   -2.6369 C   0  0  0  0  0  0  0  0  0  0  0  0
   -0.7114    9.0660   -5.8691 O   0  0  0  0  0  0  0  0  0  0  0  0
   -1.9559   11.9530   -9.0760 C   0  0  0  0  0  0  0  0  0  0  0  0
   -1.8550   11.1109  -10.1769 C   0  0  0  0  0  0  0  0  0  0  0  0
   -2.8941   10.1760  -10.4220 C   0  0  0  0  0  0  0  0  0  0  0  0
   -3.9742   10.1443   -9.5522 C   0  0  0  0  0  0  0  0  0  0  0  0
   -4.0645   11.0378   -8.4645 C   0  0  0  0  0  0  0  0  0  0  0  0
   -3.0073   11.9232   -8.2377 C   0  0  0  0  0  0  0  0  0  0  0  0
   -9.0320    7.4110   -9.2760 F   0  0  0  0  0  0  0  0  0  0  0  0
  1  2  1  0  0  0  0
  2  3  1  0  0  0  0
  2  5  1  0  0  0  0
  3  4  1  0  0  0  0
  5  6  4  0  0  0  0
  5 10  4  0  0  0  0
  6  7  4  0  0  0  0
  7  8  4  0  0  0  0
  8  9  4  0  0  0  0
  9 10  4  0  0  0  0
 10 11  1  0  0  0  0
 11 12  4  0  0  0  0
 11 15  4  0  0  0  0
 12 13  1  0  0  0  0
 12 68  4  0  0  0  0
 13 14  1  0  0  0  0
 15 16  1  0  0  0  0
 15 67  4  0  0  0  0
 16 17  1  0  0  0  0
 17 18  1  0  0  0  0
 17 19  1  0  0  0  0
 17 20  1  0  0  0  0
 20 21  1  0  0  0  0
 21 22  1  0  0  0  0
 22 23  1  0  0  0  0
 22 66  2  0  0  0  0
 23 24  1  0  0  0  0
 23 65  1  0  0  0  0
 24 25  1  0  0  0  0
 25 26  1  0  0  0  0
 25 63  1  0  0  0  0
 26 27  1  0  0  0  0
 26 62  2  0  0  0  0
 27 28  1  0  0  0  0
 27 55  1  0  0  0  0
 28 29  1  0  0  0  0
 29 30  1  0  0  0  0
 29 54  2  0  0  0  0
 30 31  1  0  0  0  0
 30 34  1  0  0  0  0
 31 32  1  0  0  0  0
 31 33  1  0  0  0  0
 34 35  1  0  0  0  0
 34 53  1  0  0  0  0
 35 36  1  0  0  0  0
 35 52  2  0  0  0  0
 36 37  1  0  0  0  0
 36 51  1  0  0  0  0
 36 73  1  0  0  0  0
 37 38  1  0  0  0  0
 38 39  1  0  0  0  0
 39 40  1  0  0  0  0
 39 50  1  0  0  0  0
 40 41  1  0  0  0  0
 40 49  2  0  0  0  0
 41 42  1  0  0  0  0
 42 43  1  0  0  0  0
 43 44  1  0  0  0  0
 43 47  1  0  0  0  0
 43 48  1  0  0  0  0
 44 45  1  0  0  0  0
 44 46  1  0  0  0  0
 50 51  1  0  0  0  0
 55 56  1  0  0  0  0
 56 57  1  0  0  0  0
 56 61  1  0  0  0  0
 57 58  1  0  0  0  0
 58 59  1  0  0  0  0
 58 71  1  0  0  0  0
 59 60  1  0  0  0  0
 60 61  1  0  0  0  0
 63 64  1  0  0  0  0
 64 65  1  0  0  0  0
 67 68  4  0  0  0  0
 67 72  4  0  0  0  0
 68 69  4  0  0  0  0
 69 70  4  0  0  0  0
 70 71  4  0  0  0  0
 71 72  4  0  0  0  0
M  END
$$$$
