mol_bioactive_18
  PyMOL3.1          3D                             0

 73 79  0  0  0  0  0  0  0  0999 V2000
   -0.3606   15.3990  -13.1066 C   0  0  0  0  0  0  0  0  0  0  0  0
   -0.3597   15.0667  -11.6272 C   0  0  0  0  0  0  0  0  0  0  0  0
   -0.5662   16.1642  -10.7868 O   0  0  0  0  0  0  0  0  0  0  0  0
   -1.9091   16.5673  -10.5318 C   0  0  0  0  0  0  0  0  0  0  0  0
    0.9127   14.4299  -11.2151 C   0  0  0  0  0  0  0  0  0  0  0  0
    2.0530   15.0262  -11.5409 N   0  0  0  0  0  0  0  0  0  0  0  0
    3.2359   14.4683  -11.2091 C   0  0  0  0  0  0  0  0  0  0  0  0
    3.2895   13.2435  -10.5328 C   0  0  0  0  0  0  0  0  0  0  0  0
    2.1200   12.6244  -10.2070 C   0  0  0  0  0  0  0  0  0  0  0  0
    0.9303   13.2217  -10.5383 C   0  0  0  0  0  0  0  0  0  0  0  0
   -0.3008   12.5918  -10.1453 C   0  0  0  0  0  0  0  0  0  0  0  0
   -0.9241   11.6332  -10.8813 N   0  0  0  0  0  0  0  0  0  0  0  0
   -0.4850   11.0496  -12.1609 C   0  0  0  0  0  0  0  0  0  0  0  0
    0.1367    9.6662  -11.9425 C   0  0  0  0  0  0  0  0  0  0  0  0
   -1.0664   12.8947   -9.0265 C   0  0  0  0  0  0  0  0  0  0  0  0
   -0.8409   13.8842   -7.9311 C   0  0  0  0  0  0  0  0  0  0  0  0
   -0.0295   13.3693   -6.6993 C   0  0  0  0  0  0  0  0  0  0  0  0
   -0.5530   14.0856   -5.4502 C   0  0  0  0  0  0  0  0  0  0  0  0
    1.4681   13.7197   -6.8576 C   0  0  0  0  0  0  0  0  0  0  0  0
   -0.0711   11.9501   -6.5096 C   0  0  0  0  0  0  0  0  0  0  0  0
   -0.7330   11.4107   -5.3217 O   0  0  0  0  0  0  0  0  0  0  0  0
   -1.0187   10.0446   -5.1612 C   0  0  0  0  0  0  0  0  0  0  0  0
   -1.7413    9.7281   -3.8862 C   0  0  0  0  0  0  0  0  0  0  0  0
   -2.4586    8.4736   -4.0683 N   0  0  0  0  0  0  0  0  0  0  0  0
   -3.1400    8.0447   -2.9524 N   0  0  0  0  0  0  0  0  0  0  0  0
   -4.5087    7.9589   -2.9486 C   0  0  0  0  0  0  0  0  0  0  0  0
   -5.2431    8.3333   -4.2234 C   0  0  0  0  0  0  0  0  0  0  0  0
   -6.4341    7.5098   -4.4456 N   0  0  0  0  0  0  0  0  0  0  0  0
   -6.5130    6.4937   -5.3350 C   0  0  0  0  0  0  0  0  0  0  0  0
   -7.8899    5.8991   -5.4804 C   0  0  0  0  0  0  0  0  0  0  0  0
   -7.9836    4.3922   -5.1074 C   0  0  0  0  0  0  0  0  0  0  0  0
   -9.4212    3.8997   -5.3052 C   0  0  0  0  0  0  0  0  0  0  0  0
   -7.5659    4.1871   -3.6416 C   0  0  0  0  0  0  0  0  0  0  0  0
   -8.3659    6.1652   -6.8251 N   0  0  0  0  0  0  0  0  0  0  0  0
   -9.2372    7.2039   -7.0021 C   0  0  0  0  0  0  0  0  0  0  0  0
   -9.8970    7.4593   -8.3403 C   0  0  0  0  0  0  0  0  0  0  0  0
  -11.3414    7.8851   -8.1322 C   0  0  0  0  0  0  0  0  0  0  0  0
  -11.9590    8.0944   -9.4449 C   0  0  0  0  0  0  0  0  0  0  0  0
  -11.1648    9.0442  -10.2361 N   0  0  0  0  0  0  0  0  0  0  0  0
  -11.7166   10.1493  -10.7673 C   0  0  0  0  0  0  0  0  0  0  0  0
  -13.0397   10.4503  -10.4053 C   0  0  0  0  0  0  0  0  0  0  0  0
  -14.1216   10.7672  -10.1734 C   0  0  0  0  0  0  0  0  0  0  0  0
  -15.4632   11.0757   -9.7295 C   0  0  0  0  0  0  0  0  0  0  0  0
  -15.3847   11.8697   -8.4777 N   0  0  0  0  0  0  0  0  0  0  0  0
  -14.8311   11.1192   -7.3301 C   0  0  0  0  0  0  0  0  0  0  0  0
  -14.7162   13.1639   -8.6415 C   0  0  0  0  0  0  0  0  0  0  0  0
  -16.2392    9.7660   -9.4646 C   0  0  0  0  0  0  0  0  0  0  0  0
  -16.1506   11.8738  -10.8318 C   0  0  0  0  0  0  0  0  0  0  0  0
  -11.0800   10.8633  -11.5217 O   0  0  0  0  0  0  0  0  0  0  0  0
   -9.7409    8.7652  -10.4278 C   0  0  0  0  0  0  0  0  0  0  0  0
   -9.1126    8.5388   -9.0790 C   0  0  0  0  0  0  0  0  0  0  0  0
   -9.5375    7.9320   -6.0389 O   0  0  0  0  0  0  0  0  0  0  0  0
   -7.8220    5.3161   -7.9165 C   0  0  0  0  0  0  0  0  0  0  0  0
   -5.5514    6.1382   -6.0139 O   0  0  0  0  0  0  0  0  0  0  0  0
   -5.6548    9.8252   -4.0767 C   0  0  0  0  0  0  0  0  0  0  0  0
   -5.8177   10.6435   -5.3407 C   0  0  0  0  0  0  0  0  0  0  0  0
   -5.1127   10.1049   -6.5756 C   0  0  0  0  0  0  0  0  0  0  0  0
   -5.4328   10.8999   -7.7676 N   0  0  0  0  0  0  0  0  0  0  0  0
   -6.3074   12.0866   -7.5750 C   0  0  0  0  0  0  0  0  0  0  0  0
   -7.4694   11.7706   -6.6881 C   0  0  0  0  0  0  0  0  0  0  0  0
   -7.2045   10.8285   -5.6337 O   0  0  0  0  0  0  0  0  0  0  0  0
   -5.1397    7.6875   -1.9489 O   0  0  0  0  0  0  0  0  0  0  0  0
   -2.3052    7.8254   -1.7622 C   0  0  0  0  0  0  0  0  0  0  0  0
   -1.5174    9.1339   -1.4677 C   0  0  0  0  0  0  0  0  0  0  0  0
   -0.7736    9.5988   -2.7003 C   0  0  0  0  0  0  0  0  0  0  0  0
   -0.7600    9.0954   -5.9518 O   0  0  0  0  0  0  0  0  0  0  0  0
   -2.1635   12.0681   -9.1139 C   0  0  0  0  0  0  0  0  0  0  0  0
   -2.0466   11.2861  -10.2598 C   0  0  0  0  0  0  0  0  0  0  0  0
   -3.0675   10.3399  -10.5689 C   0  0  0  0  0  0  0  0  0  0  0  0
   -4.1581   10.2283   -9.7045 C   0  0  0  0  0  0  0  0  0  0  0  0
   -4.2713   11.0539   -8.5715 C   0  0  0  0  0  0  0  0  0  0  0  0
   -3.2526   11.9736   -8.2714 C   0  0  0  0  0  0  0  0  0  0  0  0
   -9.9271    6.3287   -9.1225 F   0  0  0  0  0  0  0  0  0  0  0  0
  1  2  1  0  0  0  0
  2  3  1  0  0  0  0
  2  5  1  0  0  0  0
  3  4  1  0  0  0  0
  5  6  4  0  0  0  0
  5 10  4  0  0  0  0
  6  7  4  0  0  0  0
  7  8  4  0  0  0  0
  8  9  4  0  0  0  0
  9 10  4  0  0  0  0
 10 11  1  0  0  0  0
 11 12  4  0  0  0  0
 11 15  4  0  0  0  0
 12 13  1  0  0  0  0
 12 68  4  0  0  0  0
 13 14  1  0  0  0  0
 15 16  1  0  0  0  0
 15 67  4  0  0  0  0
 16 17  1  0  0  0  0
 17 18  1  0  0  0  0
 17 19  1  0  0  0  0
 17 20  1  0  0  0  0
 20 21  1  0  0  0  0
 21 22  1  0  0  0  0
 22 23  1  0  0  0  0
 22 66  2  0  0  0  0
 23 24  1  0  0  0  0
 23 65  1  0  0  0  0
 24 25  1  0  0  0  0
 25 26  1  0  0  0  0
 25 63  1  0  0  0  0
 26 27  1  0  0  0  0
 26 62  2  0  0  0  0
 27 28  1  0  0  0  0
 27 55  1  0  0  0  0
 28 29  1  0  0  0  0
 29 30  1  0  0  0  0
 29 54  2  0  0  0  0
 30 31  1  0  0  0  0
 30 34  1  0  0  0  0
 31 32  1  0  0  0  0
 31 33  1  0  0  0  0
 34 35  1  0  0  0  0
 34 53  1  0  0  0  0
 35 36  1  0  0  0  0
 35 52  2  0  0  0  0
 36 37  1  0  0  0  0
 36 51  1  0  0  0  0
 36 73  1  0  0  0  0
 37 38  1  0  0  0  0
 38 39  1  0  0  0  0
 39 40  1  0  0  0  0
 39 50  1  0  0  0  0
 40 41  1  0  0  0  0
 40 49  2  0  0  0  0
 41 42  1  0  0  0  0
 42 43  1  0  0  0  0
 43 44  1  0  0  0  0
 43 47  1  0  0  0  0
 43 48  1  0  0  0  0
 44 45  1  0  0  0  0
 44 46  1  0  0  0  0
 50 51  1  0  0  0  0
 55 56  1  0  0  0  0
 56 57  1  0  0  0  0
 56 61  1  0  0  0  0
 57 58  1  0  0  0  0
 58 59  1  0  0  0  0
 58 71  1  0  0  0  0
 59 60  1  0  0  0  0
 60 61  1  0  0  0  0
 63 64  1  0  0  0  0
 64 65  1  0  0  0  0
 67 68  4  0  0  0  0
 67 72  4  0  0  0  0
 68 69  4  0  0  0  0
 69 70  4  0  0  0  0
 70 71  4  0  0  0  0
 71 72  4  0  0  0  0
M  END
$$$$
