mol_ETKDG5_146
  PyMOL3.1          3D                             0

 73 79  0  0  0  0  0  0  0  0999 V2000
   -0.1535   16.7567  -11.0246 C   0  0  0  0  0  0  0  0  0  0  0  0
   -0.1955   15.2491  -11.1173 C   0  0  0  0  0  0  0  0  0  0  0  0
   -0.5598   14.7716  -12.3866 O   0  0  0  0  0  0  0  0  0  0  0  0
   -1.9411   14.5687  -12.6302 C   0  0  0  0  0  0  0  0  0  0  0  0
    1.0913   14.6106  -10.7796 C   0  0  0  0  0  0  0  0  0  0  0  0
    2.2202   15.2436  -11.0715 N   0  0  0  0  0  0  0  0  0  0  0  0
    3.4085   14.6705  -10.8129 C   0  0  0  0  0  0  0  0  0  0  0  0
    3.4892   13.4163  -10.2099 C   0  0  0  0  0  0  0  0  0  0  0  0
    2.3313   12.7696   -9.9071 C   0  0  0  0  0  0  0  0  0  0  0  0
    1.1334   13.3592  -10.2067 C   0  0  0  0  0  0  0  0  0  0  0  0
   -0.0971   12.6831   -9.8590 C   0  0  0  0  0  0  0  0  0  0  0  0
   -0.6851   11.6957  -10.5940 N   0  0  0  0  0  0  0  0  0  0  0  0
   -0.1866   11.0784  -11.8178 C   0  0  0  0  0  0  0  0  0  0  0  0
    0.4493    9.7219  -11.4724 C   0  0  0  0  0  0  0  0  0  0  0  0
   -0.8973   12.9882   -8.7669 C   0  0  0  0  0  0  0  0  0  0  0  0
   -0.7025   13.9710   -7.6723 C   0  0  0  0  0  0  0  0  0  0  0  0
    0.0442   13.4218   -6.4183 C   0  0  0  0  0  0  0  0  0  0  0  0
   -0.5304   14.1048   -5.1751 C   0  0  0  0  0  0  0  0  0  0  0  0
    1.5524   13.7651   -6.4935 C   0  0  0  0  0  0  0  0  0  0  0  0
   -0.0082   11.9943   -6.2686 C   0  0  0  0  0  0  0  0  0  0  0  0
   -0.6989   11.4278   -5.1255 O   0  0  0  0  0  0  0  0  0  0  0  0
   -1.0131   10.0666   -5.0214 C   0  0  0  0  0  0  0  0  0  0  0  0
   -1.7304    9.7308   -3.7643 C   0  0  0  0  0  0  0  0  0  0  0  0
   -2.4448    8.4833   -3.9736 N   0  0  0  0  0  0  0  0  0  0  0  0
   -3.1225    8.0372   -2.8638 N   0  0  0  0  0  0  0  0  0  0  0  0
   -4.4810    7.9469   -2.8593 C   0  0  0  0  0  0  0  0  0  0  0  0
   -5.1882    8.2577   -4.1476 C   0  0  0  0  0  0  0  0  0  0  0  0
   -6.3669    7.4441   -4.3557 N   0  0  0  0  0  0  0  0  0  0  0  0
   -6.4409    6.4712   -5.2731 C   0  0  0  0  0  0  0  0  0  0  0  0
   -7.7978    5.8614   -5.4127 C   0  0  0  0  0  0  0  0  0  0  0  0
   -7.8535    4.3550   -5.0139 C   0  0  0  0  0  0  0  0  0  0  0  0
   -9.2442    3.7895   -5.2640 C   0  0  0  0  0  0  0  0  0  0  0  0
   -7.5013    4.1951   -3.5293 C   0  0  0  0  0  0  0  0  0  0  0  0
   -8.2805    6.0598   -6.7570 N   0  0  0  0  0  0  0  0  0  0  0  0
   -9.2537    6.9761   -6.9607 C   0  0  0  0  0  0  0  0  0  0  0  0
   -9.9862    7.0182   -8.2799 C   0  0  0  0  0  0  0  0  0  0  0  0
  -11.0876    8.0650   -8.2844 C   0  0  0  0  0  0  0  0  0  0  0  0
  -11.8716    7.9708   -9.5420 C   0  0  0  0  0  0  0  0  0  0  0  0
  -12.3507    6.5935   -9.7148 N   0  0  0  0  0  0  0  0  0  0  0  0
  -13.6528    6.2324   -9.7330 C   0  0  0  0  0  0  0  0  0  0  0  0
  -14.6002    7.1761   -9.3398 C   0  0  0  0  0  0  0  0  0  0  0  0
  -15.4292    7.9004   -9.0409 C   0  0  0  0  0  0  0  0  0  0  0  0
  -16.3846    8.8703   -8.5512 C   0  0  0  0  0  0  0  0  0  0  0  0
  -15.6862    9.8798   -7.7349 N   0  0  0  0  0  0  0  0  0  0  0  0
  -14.9592    9.3157   -6.5863 C   0  0  0  0  0  0  0  0  0  0  0  0
  -14.8546   10.8241   -8.5109 C   0  0  0  0  0  0  0  0  0  0  0  0
  -17.4387    8.1749   -7.6845 C   0  0  0  0  0  0  0  0  0  0  0  0
  -17.0609    9.5368   -9.7495 C   0  0  0  0  0  0  0  0  0  0  0  0
  -13.9888    5.0962  -10.0431 O   0  0  0  0  0  0  0  0  0  0  0  0
  -11.3582    5.5599   -9.7524 C   0  0  0  0  0  0  0  0  0  0  0  0
  -10.6392    5.6438   -8.4561 C   0  0  0  0  0  0  0  0  0  0  0  0
   -9.5822    7.7523   -6.0489 O   0  0  0  0  0  0  0  0  0  0  0  0
   -7.6601    5.2258   -7.8351 C   0  0  0  0  0  0  0  0  0  0  0  0
   -5.4880    6.1262   -5.9661 O   0  0  0  0  0  0  0  0  0  0  0  0
   -5.6328    9.7431   -4.0816 C   0  0  0  0  0  0  0  0  0  0  0  0
   -6.0758   10.2319   -5.4360 C   0  0  0  0  0  0  0  0  0  0  0  0
   -4.8372   10.4956   -6.2488 C   0  0  0  0  0  0  0  0  0  0  0  0
   -5.2092   11.0770   -7.5406 N   0  0  0  0  0  0  0  0  0  0  0  0
   -6.0930   12.3070   -7.3456 C   0  0  0  0  0  0  0  0  0  0  0  0
   -7.2999   11.9478   -6.5337 C   0  0  0  0  0  0  0  0  0  0  0  0
   -6.8729   11.3984   -5.2773 O   0  0  0  0  0  0  0  0  0  0  0  0
   -5.1171    7.7026   -1.8658 O   0  0  0  0  0  0  0  0  0  0  0  0
   -2.2883    7.7912   -1.6912 C   0  0  0  0  0  0  0  0  0  0  0  0
   -1.4995    9.0898   -1.3666 C   0  0  0  0  0  0  0  0  0  0  0  0
   -0.7617    9.5706   -2.5911 C   0  0  0  0  0  0  0  0  0  0  0  0
   -0.7766    9.1387   -5.8410 O   0  0  0  0  0  0  0  0  0  0  0  0
   -1.9769   12.1476   -8.8774 C   0  0  0  0  0  0  0  0  0  0  0  0
   -1.8190   11.3482   -9.9957 C   0  0  0  0  0  0  0  0  0  0  0  0
   -2.8283   10.3863  -10.2993 C   0  0  0  0  0  0  0  0  0  0  0  0
   -3.9271   10.2982   -9.4599 C   0  0  0  0  0  0  0  0  0  0  0  0
   -4.0701   11.1622   -8.3538 C   0  0  0  0  0  0  0  0  0  0  0  0
   -3.0504   12.0706   -8.0700 C   0  0  0  0  0  0  0  0  0  0  0  0
   -9.0896    7.2969   -9.3074 F   0  0  0  0  0  0  0  0  0  0  0  0
  1  2  1  0  0  0  0
  2  3  1  0  0  0  0
  2  5  1  0  0  0  0
  3  4  1  0  0  0  0
  5  6  4  0  0  0  0
  5 10  4  0  0  0  0
  6  7  4  0  0  0  0
  7  8  4  0  0  0  0
  8  9  4  0  0  0  0
  9 10  4  0  0  0  0
 10 11  1  0  0  0  0
 11 12  4  0  0  0  0
 11 15  4  0  0  0  0
 12 13  1  0  0  0  0
 12 68  4  0  0  0  0
 13 14  1  0  0  0  0
 15 16  1  0  0  0  0
 15 67  4  0  0  0  0
 16 17  1  0  0  0  0
 17 18  1  0  0  0  0
 17 19  1  0  0  0  0
 17 20  1  0  0  0  0
 20 21  1  0  0  0  0
 21 22  1  0  0  0  0
 22 23  1  0  0  0  0
 22 66  2  0  0  0  0
 23 24  1  0  0  0  0
 23 65  1  0  0  0  0
 24 25  1  0  0  0  0
 25 26  1  0  0  0  0
 25 63  1  0  0  0  0
 26 27  1  0  0  0  0
 26 62  2  0  0  0  0
 27 28  1  0  0  0  0
 27 55  1  0  0  0  0
 28 29  1  0  0  0  0
 29 30  1  0  0  0  0
 29 54  2  0  0  0  0
 30 31  1  0  0  0  0
 30 34  1  0  0  0  0
 31 32  1  0  0  0  0
 31 33  1  0  0  0  0
 34 35  1  0  0  0  0
 34 53  1  0  0  0  0
 35 36  1  0  0  0  0
 35 52  2  0  0  0  0
 36 37  1  0  0  0  0
 36 51  1  0  0  0  0
 36 73  1  0  0  0  0
 37 38  1  0  0  0  0
 38 39  1  0  0  0  0
 39 40  1  0  0  0  0
 39 50  1  0  0  0  0
 40 41  1  0  0  0  0
 40 49  2  0  0  0  0
 41 42  1  0  0  0  0
 42 43  1  0  0  0  0
 43 44  1  0  0  0  0
 43 47  1  0  0  0  0
 43 48  1  0  0  0  0
 44 45  1  0  0  0  0
 44 46  1  0  0  0  0
 50 51  1  0  0  0  0
 55 56  1  0  0  0  0
 56 57  1  0  0  0  0
 56 61  1  0  0  0  0
 57 58  1  0  0  0  0
 58 59  1  0  0  0  0
 58 71  1  0  0  0  0
 59 60  1  0  0  0  0
 60 61  1  0  0  0  0
 63 64  1  0  0  0  0
 64 65  1  0  0  0  0
 67 68  4  0  0  0  0
 67 72  4  0  0  0  0
 68 69  4  0  0  0  0
 69 70  4  0  0  0  0
 70 71  4  0  0  0  0
 71 72  4  0  0  0  0
M  END
$$$$
