mol_ETKDG4_121
  PyMOL3.1          3D                             0

 73 79  0  0  0  0  0  0  0  0999 V2000
   -0.8971   15.4084  -11.9036 C   0  0  0  0  0  0  0  0  0  0  0  0
   -0.3902   14.0738  -12.4616 C   0  0  0  0  0  0  0  0  0  0  0  0
   -0.2522   14.1365  -13.8670 O   0  0  0  0  0  0  0  0  0  0  0  0
   -0.4017   12.9074  -14.5672 C   0  0  0  0  0  0  0  0  0  0  0  0
    0.9020   13.6788  -11.8392 C   0  0  0  0  0  0  0  0  0  0  0  0
    2.0128   14.2434  -12.2805 N   0  0  0  0  0  0  0  0  0  0  0  0
    3.1999   13.9074  -11.7360 C   0  0  0  0  0  0  0  0  0  0  0  0
    3.2852   12.9779  -10.7099 C   0  0  0  0  0  0  0  0  0  0  0  0
    2.1393   12.3971  -10.2578 C   0  0  0  0  0  0  0  0  0  0  0  0
    0.9540   12.7411  -10.8254 C   0  0  0  0  0  0  0  0  0  0  0  0
   -0.2463   12.1453  -10.3319 C   0  0  0  0  0  0  0  0  0  0  0  0
   -0.8900   11.1070  -10.9393 N   0  0  0  0  0  0  0  0  0  0  0  0
   -0.4550   10.3368  -12.1160 C   0  0  0  0  0  0  0  0  0  0  0  0
    0.2588    9.0558  -11.6664 C   0  0  0  0  0  0  0  0  0  0  0  0
   -0.9797   12.5783   -9.2296 C   0  0  0  0  0  0  0  0  0  0  0  0
   -0.7214   13.6726   -8.2320 C   0  0  0  0  0  0  0  0  0  0  0  0
   -0.0572   13.2446   -6.8800 C   0  0  0  0  0  0  0  0  0  0  0  0
   -0.7409   13.9971   -5.7382 C   0  0  0  0  0  0  0  0  0  0  0  0
    1.4372   13.6237   -6.8989 C   0  0  0  0  0  0  0  0  0  0  0  0
   -0.0782   11.8374   -6.6082 C   0  0  0  0  0  0  0  0  0  0  0  0
   -0.7228   11.3529   -5.3804 O   0  0  0  0  0  0  0  0  0  0  0  0
   -0.9510    9.9825   -5.1395 C   0  0  0  0  0  0  0  0  0  0  0  0
   -1.6712    9.6990   -3.8589 C   0  0  0  0  0  0  0  0  0  0  0  0
   -2.3807    8.4416   -4.0250 N   0  0  0  0  0  0  0  0  0  0  0  0
   -3.0617    8.0230   -2.9024 N   0  0  0  0  0  0  0  0  0  0  0  0
   -4.4223    7.9239   -2.9019 C   0  0  0  0  0  0  0  0  0  0  0  0
   -5.1309    8.2142   -4.1869 C   0  0  0  0  0  0  0  0  0  0  0  0
   -6.3125    7.4029   -4.3739 N   0  0  0  0  0  0  0  0  0  0  0  0
   -6.4124    6.4415   -5.3083 C   0  0  0  0  0  0  0  0  0  0  0  0
   -7.7808    5.8667   -5.4501 C   0  0  0  0  0  0  0  0  0  0  0  0
   -7.8723    4.3604   -5.0669 C   0  0  0  0  0  0  0  0  0  0  0  0
   -9.2887    3.8497   -5.2966 C   0  0  0  0  0  0  0  0  0  0  0  0
   -7.4993    4.1712   -3.5896 C   0  0  0  0  0  0  0  0  0  0  0  0
   -8.2488    6.0861   -6.7971 N   0  0  0  0  0  0  0  0  0  0  0  0
   -9.1568    7.0786   -7.0043 C   0  0  0  0  0  0  0  0  0  0  0  0
   -9.8618    7.1798   -8.3385 C   0  0  0  0  0  0  0  0  0  0  0  0
  -10.8370    8.3518   -8.4102 C   0  0  0  0  0  0  0  0  0  0  0  0
  -11.5771    8.3074   -9.7000 C   0  0  0  0  0  0  0  0  0  0  0  0
  -12.1970    6.9806   -9.8735 N   0  0  0  0  0  0  0  0  0  0  0  0
  -13.5103    6.7570  -10.0484 C   0  0  0  0  0  0  0  0  0  0  0  0
  -14.3917    7.8308   -9.9833 C   0  0  0  0  0  0  0  0  0  0  0  0
  -15.2026    8.6286   -9.9763 C   0  0  0  0  0  0  0  0  0  0  0  0
  -16.1449    9.7036   -9.8671 C   0  0  0  0  0  0  0  0  0  0  0  0
  -15.5068   10.8423   -9.1751 N   0  0  0  0  0  0  0  0  0  0  0  0
  -15.0106   10.5035   -7.8246 C   0  0  0  0  0  0  0  0  0  0  0  0
  -14.4873   11.5295   -9.9691 C   0  0  0  0  0  0  0  0  0  0  0  0
  -17.3555    9.2284   -9.0609 C   0  0  0  0  0  0  0  0  0  0  0  0
  -16.5670   10.1167  -11.2816 C   0  0  0  0  0  0  0  0  0  0  0  0
  -13.9315    5.6287  -10.2457 O   0  0  0  0  0  0  0  0  0  0  0  0
  -11.3338    5.8333   -9.7939 C   0  0  0  0  0  0  0  0  0  0  0  0
  -10.6682    5.8948   -8.4738 C   0  0  0  0  0  0  0  0  0  0  0  0
   -9.4410    7.8679   -6.0946 O   0  0  0  0  0  0  0  0  0  0  0  0
   -7.6837    5.2101   -7.8709 C   0  0  0  0  0  0  0  0  0  0  0  0
   -5.4563    6.1062   -6.0011 O   0  0  0  0  0  0  0  0  0  0  0  0
   -5.5644    9.7089   -4.1381 C   0  0  0  0  0  0  0  0  0  0  0  0
   -6.0368   10.1736   -5.4934 C   0  0  0  0  0  0  0  0  0  0  0  0
   -4.8346   10.3667   -6.3740 C   0  0  0  0  0  0  0  0  0  0  0  0
   -5.2535   10.8896   -7.6797 N   0  0  0  0  0  0  0  0  0  0  0  0
   -6.0776   12.1776   -7.4855 C   0  0  0  0  0  0  0  0  0  0  0  0
   -7.2434   11.9086   -6.6092 C   0  0  0  0  0  0  0  0  0  0  0  0
   -6.7760   11.3841   -5.3451 O   0  0  0  0  0  0  0  0  0  0  0  0
   -5.0557    7.6796   -1.8955 O   0  0  0  0  0  0  0  0  0  0  0  0
   -2.2260    7.8099   -1.7228 C   0  0  0  0  0  0  0  0  0  0  0  0
   -1.4478    9.1249   -1.4372 C   0  0  0  0  0  0  0  0  0  0  0  0
   -0.7018    9.5850   -2.6787 C   0  0  0  0  0  0  0  0  0  0  0  0
   -0.6420    9.0016   -5.8641 O   0  0  0  0  0  0  0  0  0  0  0  0
   -2.0733   11.7609   -9.2188 C   0  0  0  0  0  0  0  0  0  0  0  0
   -1.9961   10.8529  -10.2743 C   0  0  0  0  0  0  0  0  0  0  0  0
   -3.0323    9.9028  -10.4565 C   0  0  0  0  0  0  0  0  0  0  0  0
   -4.0908    9.9161   -9.5708 C   0  0  0  0  0  0  0  0  0  0  0  0
   -4.1557   10.8753   -8.5389 C   0  0  0  0  0  0  0  0  0  0  0  0
   -3.0963   11.7733   -8.3704 C   0  0  0  0  0  0  0  0  0  0  0  0
   -8.9273    7.3214   -9.3558 F   0  0  0  0  0  0  0  0  0  0  0  0
  1  2  1  0  0  0  0
  2  3  1  0  0  0  0
  2  5  1  0  0  0  0
  3  4  1  0  0  0  0
  5  6  4  0  0  0  0
  5 10  4  0  0  0  0
  6  7  4  0  0  0  0
  7  8  4  0  0  0  0
  8  9  4  0  0  0  0
  9 10  4  0  0  0  0
 10 11  1  0  0  0  0
 11 12  4  0  0  0  0
 11 15  4  0  0  0  0
 12 13  1  0  0  0  0
 12 68  4  0  0  0  0
 13 14  1  0  0  0  0
 15 16  1  0  0  0  0
 15 67  4  0  0  0  0
 16 17  1  0  0  0  0
 17 18  1  0  0  0  0
 17 19  1  0  0  0  0
 17 20  1  0  0  0  0
 20 21  1  0  0  0  0
 21 22  1  0  0  0  0
 22 23  1  0  0  0  0
 22 66  2  0  0  0  0
 23 24  1  0  0  0  0
 23 65  1  0  0  0  0
 24 25  1  0  0  0  0
 25 26  1  0  0  0  0
 25 63  1  0  0  0  0
 26 27  1  0  0  0  0
 26 62  2  0  0  0  0
 27 28  1  0  0  0  0
 27 55  1  0  0  0  0
 28 29  1  0  0  0  0
 29 30  1  0  0  0  0
 29 54  2  0  0  0  0
 30 31  1  0  0  0  0
 30 34  1  0  0  0  0
 31 32  1  0  0  0  0
 31 33  1  0  0  0  0
 34 35  1  0  0  0  0
 34 53  1  0  0  0  0
 35 36  1  0  0  0  0
 35 52  2  0  0  0  0
 36 37  1  0  0  0  0
 36 51  1  0  0  0  0
 36 73  1  0  0  0  0
 37 38  1  0  0  0  0
 38 39  1  0  0  0  0
 39 40  1  0  0  0  0
 39 50  1  0  0  0  0
 40 41  1  0  0  0  0
 40 49  2  0  0  0  0
 41 42  1  0  0  0  0
 42 43  1  0  0  0  0
 43 44  1  0  0  0  0
 43 47  1  0  0  0  0
 43 48  1  0  0  0  0
 44 45  1  0  0  0  0
 44 46  1  0  0  0  0
 50 51  1  0  0  0  0
 55 56  1  0  0  0  0
 56 57  1  0  0  0  0
 56 61  1  0  0  0  0
 57 58  1  0  0  0  0
 58 59  1  0  0  0  0
 58 71  1  0  0  0  0
 59 60  1  0  0  0  0
 60 61  1  0  0  0  0
 63 64  1  0  0  0  0
 64 65  1  0  0  0  0
 67 68  4  0  0  0  0
 67 72  4  0  0  0  0
 68 69  4  0  0  0  0
 69 70  4  0  0  0  0
 70 71  4  0  0  0  0
 71 72  4  0  0  0  0
M  END
$$$$
