mol_ETKDG0_168
  PyMOL3.1          3D                             0

 73 79  0  0  0  0  0  0  0  0999 V2000
   -0.0283   16.2203  -11.8722 C   0  0  0  0  0  0  0  0  0  0  0  0
   -0.0801   14.7163  -11.7274 C   0  0  0  0  0  0  0  0  0  0  0  0
   -0.3643   14.0529  -12.9286 O   0  0  0  0  0  0  0  0  0  0  0  0
   -1.7443   13.9057  -13.2679 C   0  0  0  0  0  0  0  0  0  0  0  0
    1.1950   14.1584  -11.2185 C   0  0  0  0  0  0  0  0  0  0  0  0
    2.3381   14.7478  -11.5534 N   0  0  0  0  0  0  0  0  0  0  0  0
    3.5153   14.2318  -11.1473 C   0  0  0  0  0  0  0  0  0  0  0  0
    3.5623   13.0871  -10.3526 C   0  0  0  0  0  0  0  0  0  0  0  0
    2.3900   12.4911  -10.0061 C   0  0  0  0  0  0  0  0  0  0  0  0
    1.2076   13.0164  -10.4464 C   0  0  0  0  0  0  0  0  0  0  0  0
   -0.0257   12.3942  -10.0605 C   0  0  0  0  0  0  0  0  0  0  0  0
   -0.6265   11.3845  -10.7467 N   0  0  0  0  0  0  0  0  0  0  0  0
   -0.1359   10.6897  -11.9452 C   0  0  0  0  0  0  0  0  0  0  0  0
    0.4949    9.3486  -11.5489 C   0  0  0  0  0  0  0  0  0  0  0  0
   -0.8286   12.7666   -8.9857 C   0  0  0  0  0  0  0  0  0  0  0  0
   -0.6220   13.8109   -7.9345 C   0  0  0  0  0  0  0  0  0  0  0  0
    0.0912   13.3177   -6.6424 C   0  0  0  0  0  0  0  0  0  0  0  0
   -0.5204   14.0490   -5.4489 C   0  0  0  0  0  0  0  0  0  0  0  0
    1.6003   13.6391   -6.7021 C   0  0  0  0  0  0  0  0  0  0  0  0
    0.0331   11.8952   -6.4225 C   0  0  0  0  0  0  0  0  0  0  0  0
   -0.6523   11.3787   -5.2456 O   0  0  0  0  0  0  0  0  0  0  0  0
   -0.9483   10.0117   -5.0768 C   0  0  0  0  0  0  0  0  0  0  0  0
   -1.6820    9.7149   -3.8109 C   0  0  0  0  0  0  0  0  0  0  0  0
   -2.3838    8.4461   -3.9807 N   0  0  0  0  0  0  0  0  0  0  0  0
   -3.0699    8.0330   -2.8648 N   0  0  0  0  0  0  0  0  0  0  0  0
   -4.4345    7.9270   -2.8683 C   0  0  0  0  0  0  0  0  0  0  0  0
   -5.1376    8.2110   -4.1652 C   0  0  0  0  0  0  0  0  0  0  0  0
   -6.3311    7.4063   -4.3566 N   0  0  0  0  0  0  0  0  0  0  0  0
   -6.4194    6.4325   -5.2697 C   0  0  0  0  0  0  0  0  0  0  0  0
   -7.8125    5.8996   -5.4668 C   0  0  0  0  0  0  0  0  0  0  0  0
   -7.9525    4.3990   -5.1240 C   0  0  0  0  0  0  0  0  0  0  0  0
   -9.3852    3.9350   -5.3791 C   0  0  0  0  0  0  0  0  0  0  0  0
   -7.5775    4.1700   -3.6554 C   0  0  0  0  0  0  0  0  0  0  0  0
   -8.1739    6.2251   -6.8328 N   0  0  0  0  0  0  0  0  0  0  0  0
   -8.8756    7.3768   -7.0505 C   0  0  0  0  0  0  0  0  0  0  0  0
   -9.1810    7.8343   -8.4552 C   0  0  0  0  0  0  0  0  0  0  0  0
  -10.4290    8.6953   -8.5129 C   0  0  0  0  0  0  0  0  0  0  0  0
  -10.6027    9.1778   -9.9100 C   0  0  0  0  0  0  0  0  0  0  0  0
   -9.3884    9.8942  -10.3244 N   0  0  0  0  0  0  0  0  0  0  0  0
   -9.3938   11.1835  -10.7265 C   0  0  0  0  0  0  0  0  0  0  0  0
  -10.6277   11.7352  -11.0116 C   0  0  0  0  0  0  0  0  0  0  0  0
  -11.6103   12.2537  -11.3117 C   0  0  0  0  0  0  0  0  0  0  0  0
  -12.9214   12.7609  -11.6023 C   0  0  0  0  0  0  0  0  0  0  0  0
  -13.3328   13.6839  -10.5218 N   0  0  0  0  0  0  0  0  0  0  0  0
  -13.3487   13.0520   -9.1776 C   0  0  0  0  0  0  0  0  0  0  0  0
  -12.5981   14.9628  -10.5029 C   0  0  0  0  0  0  0  0  0  0  0  0
  -12.8640   13.5032  -12.9437 C   0  0  0  0  0  0  0  0  0  0  0  0
  -13.9188   11.5840  -11.6972 C   0  0  0  0  0  0  0  0  0  0  0  0
   -8.3616   11.8233  -10.8644 O   0  0  0  0  0  0  0  0  0  0  0  0
   -8.1394    9.1728  -10.2864 C   0  0  0  0  0  0  0  0  0  0  0  0
   -7.9541    8.6424   -8.9084 C   0  0  0  0  0  0  0  0  0  0  0  0
   -9.2347    8.0840   -6.0890 O   0  0  0  0  0  0  0  0  0  0  0  0
   -7.6455    5.3435   -7.9039 C   0  0  0  0  0  0  0  0  0  0  0  0
   -5.4639    6.0650   -5.9471 O   0  0  0  0  0  0  0  0  0  0  0  0
   -5.5753    9.7130   -4.1307 C   0  0  0  0  0  0  0  0  0  0  0  0
   -6.0121   10.1737   -5.5097 C   0  0  0  0  0  0  0  0  0  0  0  0
   -4.7753   10.4251   -6.3390 C   0  0  0  0  0  0  0  0  0  0  0  0
   -5.1574   10.9504   -7.6697 N   0  0  0  0  0  0  0  0  0  0  0  0
   -6.0309   12.1947   -7.5077 C   0  0  0  0  0  0  0  0  0  0  0  0
   -7.2448   11.8554   -6.6817 C   0  0  0  0  0  0  0  0  0  0  0  0
   -6.8039   11.3551   -5.3966 O   0  0  0  0  0  0  0  0  0  0  0  0
   -5.0757    7.6907   -1.8653 O   0  0  0  0  0  0  0  0  0  0  0  0
   -2.2373    7.8346   -1.6715 C   0  0  0  0  0  0  0  0  0  0  0  0
   -1.4916    9.1463   -1.3829 C   0  0  0  0  0  0  0  0  0  0  0  0
   -0.7304    9.6133   -2.6141 C   0  0  0  0  0  0  0  0  0  0  0  0
   -0.6920    9.0517   -5.8527 O   0  0  0  0  0  0  0  0  0  0  0  0
   -1.9180   11.9363   -9.0544 C   0  0  0  0  0  0  0  0  0  0  0  0
   -1.7718   11.0804  -10.1386 C   0  0  0  0  0  0  0  0  0  0  0  0
   -2.7820   10.1218  -10.4119 C   0  0  0  0  0  0  0  0  0  0  0  0
   -3.8913   10.0832   -9.5641 C   0  0  0  0  0  0  0  0  0  0  0  0
   -4.0227   10.9954   -8.4955 C   0  0  0  0  0  0  0  0  0  0  0  0
   -2.9984   11.9071   -8.2442 C   0  0  0  0  0  0  0  0  0  0  0  0
   -9.3985    6.7739   -9.3118 F   0  0  0  0  0  0  0  0  0  0  0  0
  1  2  1  0  0  0  0
  2  3  1  0  0  0  0
  2  5  1  0  0  0  0
  3  4  1  0  0  0  0
  5  6  4  0  0  0  0
  5 10  4  0  0  0  0
  6  7  4  0  0  0  0
  7  8  4  0  0  0  0
  8  9  4  0  0  0  0
  9 10  4  0  0  0  0
 10 11  1  0  0  0  0
 11 12  4  0  0  0  0
 11 15  4  0  0  0  0
 12 13  1  0  0  0  0
 12 68  4  0  0  0  0
 13 14  1  0  0  0  0
 15 16  1  0  0  0  0
 15 67  4  0  0  0  0
 16 17  1  0  0  0  0
 17 18  1  0  0  0  0
 17 19  1  0  0  0  0
 17 20  1  0  0  0  0
 20 21  1  0  0  0  0
 21 22  1  0  0  0  0
 22 23  1  0  0  0  0
 22 66  2  0  0  0  0
 23 24  1  0  0  0  0
 23 65  1  0  0  0  0
 24 25  1  0  0  0  0
 25 26  1  0  0  0  0
 25 63  1  0  0  0  0
 26 27  1  0  0  0  0
 26 62  2  0  0  0  0
 27 28  1  0  0  0  0
 27 55  1  0  0  0  0
 28 29  1  0  0  0  0
 29 30  1  0  0  0  0
 29 54  2  0  0  0  0
 30 31  1  0  0  0  0
 30 34  1  0  0  0  0
 31 32  1  0  0  0  0
 31 33  1  0  0  0  0
 34 35  1  0  0  0  0
 34 53  1  0  0  0  0
 35 36  1  0  0  0  0
 35 52  2  0  0  0  0
 36 37  1  0  0  0  0
 36 51  1  0  0  0  0
 36 73  1  0  0  0  0
 37 38  1  0  0  0  0
 38 39  1  0  0  0  0
 39 40  1  0  0  0  0
 39 50  1  0  0  0  0
 40 41  1  0  0  0  0
 40 49  2  0  0  0  0
 41 42  1  0  0  0  0
 42 43  1  0  0  0  0
 43 44  1  0  0  0  0
 43 47  1  0  0  0  0
 43 48  1  0  0  0  0
 44 45  1  0  0  0  0
 44 46  1  0  0  0  0
 50 51  1  0  0  0  0
 55 56  1  0  0  0  0
 56 57  1  0  0  0  0
 56 61  1  0  0  0  0
 57 58  1  0  0  0  0
 58 59  1  0  0  0  0
 58 71  1  0  0  0  0
 59 60  1  0  0  0  0
 60 61  1  0  0  0  0
 63 64  1  0  0  0  0
 64 65  1  0  0  0  0
 67 68  4  0  0  0  0
 67 72  4  0  0  0  0
 68 69  4  0  0  0  0
 69 70  4  0  0  0  0
 70 71  4  0  0  0  0
 71 72  4  0  0  0  0
M  END
$$$$
