mol_ETKDG5_149
  PyMOL3.1          3D                             0

 73 79  0  0  0  0  0  0  0  0999 V2000
    0.3371   15.4046  -12.9386 C   0  0  0  0  0  0  0  0  0  0  0  0
    0.0981   14.9097  -11.5277 C   0  0  0  0  0  0  0  0  0  0  0  0
   -0.3784   15.9151  -10.6777 O   0  0  0  0  0  0  0  0  0  0  0  0
   -1.7734   16.1609  -10.6445 C   0  0  0  0  0  0  0  0  0  0  0  0
    1.3288   14.3910  -10.9006 C   0  0  0  0  0  0  0  0  0  0  0  0
    2.4785   15.0067  -11.1505 N   0  0  0  0  0  0  0  0  0  0  0  0
    3.6255   14.5514  -10.6070 C   0  0  0  0  0  0  0  0  0  0  0  0
    3.6385   13.4201   -9.7890 C   0  0  0  0  0  0  0  0  0  0  0  0
    2.4545   12.7917   -9.5388 C   0  0  0  0  0  0  0  0  0  0  0  0
    1.2982   13.2771  -10.0909 C   0  0  0  0  0  0  0  0  0  0  0  0
    0.0369   12.6290   -9.7830 C   0  0  0  0  0  0  0  0  0  0  0  0
   -0.5160   11.6199  -10.5094 N   0  0  0  0  0  0  0  0  0  0  0  0
    0.0551   10.9627  -11.6838 C   0  0  0  0  0  0  0  0  0  0  0  0
    0.6983    9.6404  -11.2484 C   0  0  0  0  0  0  0  0  0  0  0  0
   -0.8173   12.9751   -8.7474 C   0  0  0  0  0  0  0  0  0  0  0  0
   -0.6660   13.9972   -7.6846 C   0  0  0  0  0  0  0  0  0  0  0  0
   -0.0604   13.4716   -6.3425 C   0  0  0  0  0  0  0  0  0  0  0  0
   -0.8442   14.1030   -5.1916 C   0  0  0  0  0  0  0  0  0  0  0  0
    1.4165   13.9130   -6.2186 C   0  0  0  0  0  0  0  0  0  0  0  0
   -0.0401   12.0381   -6.2057 C   0  0  0  0  0  0  0  0  0  0  0  0
   -0.7276   11.4374   -5.0818 O   0  0  0  0  0  0  0  0  0  0  0  0
   -1.0204   10.0666   -5.0156 C   0  0  0  0  0  0  0  0  0  0  0  0
   -1.7477    9.7047   -3.7659 C   0  0  0  0  0  0  0  0  0  0  0  0
   -2.4602    8.4625   -3.9928 N   0  0  0  0  0  0  0  0  0  0  0  0
   -3.1485    8.0169   -2.8885 N   0  0  0  0  0  0  0  0  0  0  0  0
   -4.5084    7.9507   -2.8902 C   0  0  0  0  0  0  0  0  0  0  0  0
   -5.2150    8.2637   -4.1829 C   0  0  0  0  0  0  0  0  0  0  0  0
   -6.4014    7.4637   -4.3735 N   0  0  0  0  0  0  0  0  0  0  0  0
   -6.4951    6.4970   -5.2968 C   0  0  0  0  0  0  0  0  0  0  0  0
   -7.8712    5.9254   -5.4194 C   0  0  0  0  0  0  0  0  0  0  0  0
   -7.9432    4.4086   -5.0709 C   0  0  0  0  0  0  0  0  0  0  0  0
   -9.3393    3.8754   -5.3285 C   0  0  0  0  0  0  0  0  0  0  0  0
   -7.5829    4.2054   -3.5900 C   0  0  0  0  0  0  0  0  0  0  0  0
   -8.3808    6.2092   -6.7457 N   0  0  0  0  0  0  0  0  0  0  0  0
   -9.2648    7.2321   -6.8812 C   0  0  0  0  0  0  0  0  0  0  0  0
  -10.0238    7.4244   -8.1709 C   0  0  0  0  0  0  0  0  0  0  0  0
  -10.9608    8.6252   -8.0976 C   0  0  0  0  0  0  0  0  0  0  0  0
  -11.8137    8.6908   -9.3132 C   0  0  0  0  0  0  0  0  0  0  0  0
  -12.4893    7.3982   -9.4924 N   0  0  0  0  0  0  0  0  0  0  0  0
  -13.8309    7.2089   -9.4720 C   0  0  0  0  0  0  0  0  0  0  0  0
  -14.6934    8.2624   -9.1392 C   0  0  0  0  0  0  0  0  0  0  0  0
  -15.5100    9.0375   -8.9117 C   0  0  0  0  0  0  0  0  0  0  0  0
  -16.4717   10.0450   -8.5473 C   0  0  0  0  0  0  0  0  0  0  0  0
  -15.8067   11.1319   -7.8150 N   0  0  0  0  0  0  0  0  0  0  0  0
  -15.2057   10.7118   -6.5404 C   0  0  0  0  0  0  0  0  0  0  0  0
  -14.8660   11.9234   -8.6425 C   0  0  0  0  0  0  0  0  0  0  0  0
  -17.5494    9.4210   -7.6511 C   0  0  0  0  0  0  0  0  0  0  0  0
  -17.1154   10.5913   -9.8198 C   0  0  0  0  0  0  0  0  0  0  0  0
  -14.3046    6.1043   -9.7188 O   0  0  0  0  0  0  0  0  0  0  0  0
  -11.6487    6.2356   -9.6164 C   0  0  0  0  0  0  0  0  0  0  0  0
  -10.8636    6.1607   -8.3573 C   0  0  0  0  0  0  0  0  0  0  0  0
   -9.4894    7.9916   -5.9254 O   0  0  0  0  0  0  0  0  0  0  0  0
   -7.8717    5.3669   -7.8709 C   0  0  0  0  0  0  0  0  0  0  0  0
   -5.5575    6.1407   -6.0012 O   0  0  0  0  0  0  0  0  0  0  0  0
   -5.6582    9.7578   -4.1426 C   0  0  0  0  0  0  0  0  0  0  0  0
   -6.0878   10.2301   -5.5248 C   0  0  0  0  0  0  0  0  0  0  0  0
   -4.8333   10.4948   -6.3197 C   0  0  0  0  0  0  0  0  0  0  0  0
   -5.1775   11.0589   -7.6370 N   0  0  0  0  0  0  0  0  0  0  0  0
   -6.0669   12.2824   -7.4809 C   0  0  0  0  0  0  0  0  0  0  0  0
   -7.2990   11.9161   -6.6941 C   0  0  0  0  0  0  0  0  0  0  0  0
   -6.8949   11.3910   -5.4096 O   0  0  0  0  0  0  0  0  0  0  0  0
   -5.1485    7.7137   -1.8936 O   0  0  0  0  0  0  0  0  0  0  0  0
   -2.3211    7.7582   -1.7114 C   0  0  0  0  0  0  0  0  0  0  0  0
   -1.5264    9.0489   -1.3755 C   0  0  0  0  0  0  0  0  0  0  0  0
   -0.7797    9.5357   -2.5920 C   0  0  0  0  0  0  0  0  0  0  0  0
   -0.7757    9.1640   -5.8517 O   0  0  0  0  0  0  0  0  0  0  0  0
   -1.8947   12.1251   -8.8782 C   0  0  0  0  0  0  0  0  0  0  0  0
   -1.6817   11.2909   -9.9604 C   0  0  0  0  0  0  0  0  0  0  0  0
   -2.6734   10.3165  -10.2867 C   0  0  0  0  0  0  0  0  0  0  0  0
   -3.8125   10.2470   -9.4931 C   0  0  0  0  0  0  0  0  0  0  0  0
   -4.0071   11.1381   -8.4146 C   0  0  0  0  0  0  0  0  0  0  0  0
   -3.0072   12.0612   -8.1175 C   0  0  0  0  0  0  0  0  0  0  0  0
   -9.1252    7.6134   -9.2214 F   0  0  0  0  0  0  0  0  0  0  0  0
  1  2  1  0  0  0  0
  2  3  1  0  0  0  0
  2  5  1  0  0  0  0
  3  4  1  0  0  0  0
  5  6  4  0  0  0  0
  5 10  4  0  0  0  0
  6  7  4  0  0  0  0
  7  8  4  0  0  0  0
  8  9  4  0  0  0  0
  9 10  4  0  0  0  0
 10 11  1  0  0  0  0
 11 12  4  0  0  0  0
 11 15  4  0  0  0  0
 12 13  1  0  0  0  0
 12 68  4  0  0  0  0
 13 14  1  0  0  0  0
 15 16  1  0  0  0  0
 15 67  4  0  0  0  0
 16 17  1  0  0  0  0
 17 18  1  0  0  0  0
 17 19  1  0  0  0  0
 17 20  1  0  0  0  0
 20 21  1  0  0  0  0
 21 22  1  0  0  0  0
 22 23  1  0  0  0  0
 22 66  2  0  0  0  0
 23 24  1  0  0  0  0
 23 65  1  0  0  0  0
 24 25  1  0  0  0  0
 25 26  1  0  0  0  0
 25 63  1  0  0  0  0
 26 27  1  0  0  0  0
 26 62  2  0  0  0  0
 27 28  1  0  0  0  0
 27 55  1  0  0  0  0
 28 29  1  0  0  0  0
 29 30  1  0  0  0  0
 29 54  2  0  0  0  0
 30 31  1  0  0  0  0
 30 34  1  0  0  0  0
 31 32  1  0  0  0  0
 31 33  1  0  0  0  0
 34 35  1  0  0  0  0
 34 53  1  0  0  0  0
 35 36  1  0  0  0  0
 35 52  2  0  0  0  0
 36 37  1  0  0  0  0
 36 51  1  0  0  0  0
 36 73  1  0  0  0  0
 37 38  1  0  0  0  0
 38 39  1  0  0  0  0
 39 40  1  0  0  0  0
 39 50  1  0  0  0  0
 40 41  1  0  0  0  0
 40 49  2  0  0  0  0
 41 42  1  0  0  0  0
 42 43  1  0  0  0  0
 43 44  1  0  0  0  0
 43 47  1  0  0  0  0
 43 48  1  0  0  0  0
 44 45  1  0  0  0  0
 44 46  1  0  0  0  0
 50 51  1  0  0  0  0
 55 56  1  0  0  0  0
 56 57  1  0  0  0  0
 56 61  1  0  0  0  0
 57 58  1  0  0  0  0
 58 59  1  0  0  0  0
 58 71  1  0  0  0  0
 59 60  1  0  0  0  0
 60 61  1  0  0  0  0
 63 64  1  0  0  0  0
 64 65  1  0  0  0  0
 67 68  4  0  0  0  0
 67 72  4  0  0  0  0
 68 69  4  0  0  0  0
 69 70  4  0  0  0  0
 70 71  4  0  0  0  0
 71 72  4  0  0  0  0
M  END
$$$$
