mol_ETKDG5_131
  PyMOL3.1          3D                             0

 73 79  0  0  0  0  0  0  0  0999 V2000
   -0.4058   16.0554  -11.9038 C   0  0  0  0  0  0  0  0  0  0  0  0
   -0.2649   14.5607  -12.0488 C   0  0  0  0  0  0  0  0  0  0  0  0
   -0.3974   14.0815  -13.3635 O   0  0  0  0  0  0  0  0  0  0  0  0
   -1.7156   13.8542  -13.8457 C   0  0  0  0  0  0  0  0  0  0  0  0
    1.0250   14.0691  -11.5318 C   0  0  0  0  0  0  0  0  0  0  0  0
    2.1430   14.6332  -11.9693 N   0  0  0  0  0  0  0  0  0  0  0  0
    3.3392   14.1914  -11.5316 C   0  0  0  0  0  0  0  0  0  0  0  0
    3.4281   13.1523  -10.6026 C   0  0  0  0  0  0  0  0  0  0  0  0
    2.2734   12.5778  -10.1596 C   0  0  0  0  0  0  0  0  0  0  0  0
    1.0736   13.0322  -10.6340 C   0  0  0  0  0  0  0  0  0  0  0  0
   -0.1510   12.4317  -10.1697 C   0  0  0  0  0  0  0  0  0  0  0  0
   -0.7957   11.4354  -10.8264 N   0  0  0  0  0  0  0  0  0  0  0  0
   -0.3694   10.7445  -12.0476 C   0  0  0  0  0  0  0  0  0  0  0  0
    0.2474    9.3874  -11.6791 C   0  0  0  0  0  0  0  0  0  0  0  0
   -0.8939   12.8244   -9.0575 C   0  0  0  0  0  0  0  0  0  0  0  0
   -0.6376   13.8639   -8.0250 C   0  0  0  0  0  0  0  0  0  0  0  0
    0.0714   13.3619   -6.7136 C   0  0  0  0  0  0  0  0  0  0  0  0
   -0.5405   14.1031   -5.5261 C   0  0  0  0  0  0  0  0  0  0  0  0
    1.5766   13.7155   -6.7743 C   0  0  0  0  0  0  0  0  0  0  0  0
    0.0337   11.9518   -6.4809 C   0  0  0  0  0  0  0  0  0  0  0  0
   -0.6577   11.4335   -5.2908 O   0  0  0  0  0  0  0  0  0  0  0  0
   -0.9732   10.0673   -5.1280 C   0  0  0  0  0  0  0  0  0  0  0  0
   -1.6944    9.7574   -3.8544 C   0  0  0  0  0  0  0  0  0  0  0  0
   -2.4017    8.4994   -4.0373 N   0  0  0  0  0  0  0  0  0  0  0  0
   -3.0742    8.0591   -2.9147 N   0  0  0  0  0  0  0  0  0  0  0  0
   -4.4363    7.9613   -2.9020 C   0  0  0  0  0  0  0  0  0  0  0  0
   -5.1503    8.2840   -4.1862 C   0  0  0  0  0  0  0  0  0  0  0  0
   -6.3363    7.4815   -4.3868 N   0  0  0  0  0  0  0  0  0  0  0  0
   -6.4338    6.5188   -5.3174 C   0  0  0  0  0  0  0  0  0  0  0  0
   -7.8116    5.9493   -5.4519 C   0  0  0  0  0  0  0  0  0  0  0  0
   -7.8938    4.4323   -5.1077 C   0  0  0  0  0  0  0  0  0  0  0  0
   -9.3212    3.9317   -5.3093 C   0  0  0  0  0  0  0  0  0  0  0  0
   -7.4803    4.2152   -3.6429 C   0  0  0  0  0  0  0  0  0  0  0  0
   -8.3133    6.2337   -6.7796 N   0  0  0  0  0  0  0  0  0  0  0  0
   -9.1431    7.2941   -6.9312 C   0  0  0  0  0  0  0  0  0  0  0  0
   -9.8975    7.4945   -8.2218 C   0  0  0  0  0  0  0  0  0  0  0  0
  -10.5407    8.8663   -8.2866 C   0  0  0  0  0  0  0  0  0  0  0  0
  -11.3685    8.9579   -9.5033 C   0  0  0  0  0  0  0  0  0  0  0  0
  -12.3299    7.8507   -9.5093 N   0  0  0  0  0  0  0  0  0  0  0  0
  -13.6660    8.0226   -9.4772 C   0  0  0  0  0  0  0  0  0  0  0  0
  -14.1667    9.3110   -9.3646 C   0  0  0  0  0  0  0  0  0  0  0  0
  -14.6890   10.3153   -9.2664 C   0  0  0  0  0  0  0  0  0  0  0  0
  -15.2088   11.6271   -9.0725 C   0  0  0  0  0  0  0  0  0  0  0  0
  -15.3833   11.9196   -7.6453 N   0  0  0  0  0  0  0  0  0  0  0  0
  -14.8950   10.9090   -6.7118 C   0  0  0  0  0  0  0  0  0  0  0  0
  -15.1498   13.2725   -7.1997 C   0  0  0  0  0  0  0  0  0  0  0  0
  -14.2335   12.6380   -9.7217 C   0  0  0  0  0  0  0  0  0  0  0  0
  -16.5688   11.7098   -9.7620 C   0  0  0  0  0  0  0  0  0  0  0  0
  -14.4250    7.0669   -9.5200 O   0  0  0  0  0  0  0  0  0  0  0  0
  -11.7908    6.5073   -9.4715 C   0  0  0  0  0  0  0  0  0  0  0  0
  -10.9724    6.4048   -8.2379 C   0  0  0  0  0  0  0  0  0  0  0  0
   -9.3407    8.0727   -5.9822 O   0  0  0  0  0  0  0  0  0  0  0  0
   -7.8609    5.3375   -7.8882 C   0  0  0  0  0  0  0  0  0  0  0  0
   -5.5006    6.1713   -6.0308 O   0  0  0  0  0  0  0  0  0  0  0  0
   -5.5882    9.7757   -4.1076 C   0  0  0  0  0  0  0  0  0  0  0  0
   -6.0522   10.2776   -5.4597 C   0  0  0  0  0  0  0  0  0  0  0  0
   -4.8234   10.5107   -6.2990 C   0  0  0  0  0  0  0  0  0  0  0  0
   -5.2094   11.0942   -7.5897 N   0  0  0  0  0  0  0  0  0  0  0  0
   -6.0426   12.3497   -7.3844 C   0  0  0  0  0  0  0  0  0  0  0  0
   -7.2473   12.0235   -6.5477 C   0  0  0  0  0  0  0  0  0  0  0  0
   -6.8101   11.4654   -5.2985 O   0  0  0  0  0  0  0  0  0  0  0  0
   -5.0672    7.7061   -1.9072 O   0  0  0  0  0  0  0  0  0  0  0  0
   -2.2378    7.8328   -1.7403 C   0  0  0  0  0  0  0  0  0  0  0  0
   -1.4635    9.1495   -1.4371 C   0  0  0  0  0  0  0  0  0  0  0  0
   -0.7246    9.6243   -2.6753 C   0  0  0  0  0  0  0  0  0  0  0  0
   -0.7429    9.1211   -5.9176 O   0  0  0  0  0  0  0  0  0  0  0  0
   -1.9980   12.0132   -9.0774 C   0  0  0  0  0  0  0  0  0  0  0  0
   -1.9097   11.1590  -10.1638 C   0  0  0  0  0  0  0  0  0  0  0  0
   -2.9552   10.2173  -10.3899 C   0  0  0  0  0  0  0  0  0  0  0  0
   -4.0202   10.2006   -9.5131 C   0  0  0  0  0  0  0  0  0  0  0  0
   -4.0953   11.1144   -8.4404 C   0  0  0  0  0  0  0  0  0  0  0  0
   -3.0407   12.0015   -8.2290 C   0  0  0  0  0  0  0  0  0  0  0  0
   -9.0468    7.3823   -9.3176 F   0  0  0  0  0  0  0  0  0  0  0  0
  1  2  1  0  0  0  0
  2  3  1  0  0  0  0
  2  5  1  0  0  0  0
  3  4  1  0  0  0  0
  5  6  4  0  0  0  0
  5 10  4  0  0  0  0
  6  7  4  0  0  0  0
  7  8  4  0  0  0  0
  8  9  4  0  0  0  0
  9 10  4  0  0  0  0
 10 11  1  0  0  0  0
 11 12  4  0  0  0  0
 11 15  4  0  0  0  0
 12 13  1  0  0  0  0
 12 68  4  0  0  0  0
 13 14  1  0  0  0  0
 15 16  1  0  0  0  0
 15 67  4  0  0  0  0
 16 17  1  0  0  0  0
 17 18  1  0  0  0  0
 17 19  1  0  0  0  0
 17 20  1  0  0  0  0
 20 21  1  0  0  0  0
 21 22  1  0  0  0  0
 22 23  1  0  0  0  0
 22 66  2  0  0  0  0
 23 24  1  0  0  0  0
 23 65  1  0  0  0  0
 24 25  1  0  0  0  0
 25 26  1  0  0  0  0
 25 63  1  0  0  0  0
 26 27  1  0  0  0  0
 26 62  2  0  0  0  0
 27 28  1  0  0  0  0
 27 55  1  0  0  0  0
 28 29  1  0  0  0  0
 29 30  1  0  0  0  0
 29 54  2  0  0  0  0
 30 31  1  0  0  0  0
 30 34  1  0  0  0  0
 31 32  1  0  0  0  0
 31 33  1  0  0  0  0
 34 35  1  0  0  0  0
 34 53  1  0  0  0  0
 35 36  1  0  0  0  0
 35 52  2  0  0  0  0
 36 37  1  0  0  0  0
 36 51  1  0  0  0  0
 36 73  1  0  0  0  0
 37 38  1  0  0  0  0
 38 39  1  0  0  0  0
 39 40  1  0  0  0  0
 39 50  1  0  0  0  0
 40 41  1  0  0  0  0
 40 49  2  0  0  0  0
 41 42  1  0  0  0  0
 42 43  1  0  0  0  0
 43 44  1  0  0  0  0
 43 47  1  0  0  0  0
 43 48  1  0  0  0  0
 44 45  1  0  0  0  0
 44 46  1  0  0  0  0
 50 51  1  0  0  0  0
 55 56  1  0  0  0  0
 56 57  1  0  0  0  0
 56 61  1  0  0  0  0
 57 58  1  0  0  0  0
 58 59  1  0  0  0  0
 58 71  1  0  0  0  0
 59 60  1  0  0  0  0
 60 61  1  0  0  0  0
 63 64  1  0  0  0  0
 64 65  1  0  0  0  0
 67 68  4  0  0  0  0
 67 72  4  0  0  0  0
 68 69  4  0  0  0  0
 69 70  4  0  0  0  0
 70 71  4  0  0  0  0
 71 72  4  0  0  0  0
M  END
$$$$
