mol_bioactive_7
  PyMOL3.1          3D                             0

 73 79  0  0  0  0  0  0  0  0999 V2000
   -0.1294   15.6214  -13.0574 C   0  0  0  0  0  0  0  0  0  0  0  0
   -0.1760   15.2540  -11.5870 C   0  0  0  0  0  0  0  0  0  0  0  0
   -0.4539   16.3144  -10.7371 O   0  0  0  0  0  0  0  0  0  0  0  0
   -1.8209   16.6505  -10.4969 C   0  0  0  0  0  0  0  0  0  0  0  0
    1.1046   14.6708  -11.1373 C   0  0  0  0  0  0  0  0  0  0  0  0
    2.2321   15.2849  -11.4694 N   0  0  0  0  0  0  0  0  0  0  0  0
    3.4194   14.7794  -11.0911 C   0  0  0  0  0  0  0  0  0  0  0  0
    3.4900   13.5883  -10.3597 C   0  0  0  0  0  0  0  0  0  0  0  0
    2.3314   12.9498  -10.0295 C   0  0  0  0  0  0  0  0  0  0  0  0
    1.1358   13.4951  -10.4092 C   0  0  0  0  0  0  0  0  0  0  0  0
   -0.0907   12.8517  -10.0200 C   0  0  0  0  0  0  0  0  0  0  0  0
   -0.6982   11.8887  -10.7599 N   0  0  0  0  0  0  0  0  0  0  0  0
   -0.2354   11.3018  -12.0246 C   0  0  0  0  0  0  0  0  0  0  0  0
    0.4013    9.9306  -11.7683 C   0  0  0  0  0  0  0  0  0  0  0  0
   -0.8657   13.1407   -8.9064 C   0  0  0  0  0  0  0  0  0  0  0  0
   -0.6544   14.1023   -7.7904 C   0  0  0  0  0  0  0  0  0  0  0  0
    0.0974   13.5286   -6.5503 C   0  0  0  0  0  0  0  0  0  0  0  0
   -0.4561   14.2171   -5.3012 C   0  0  0  0  0  0  0  0  0  0  0  0
    1.6069   13.8429   -6.6518 C   0  0  0  0  0  0  0  0  0  0  0  0
    0.0108   12.0899   -6.4024 C   0  0  0  0  0  0  0  0  0  0  0  0
   -0.6588   11.5259   -5.2469 O   0  0  0  0  0  0  0  0  0  0  0  0
   -0.9169   10.1483   -5.1001 C   0  0  0  0  0  0  0  0  0  0  0  0
   -1.6481    9.8047   -3.8371 C   0  0  0  0  0  0  0  0  0  0  0  0
   -2.3737    8.5618   -4.0492 N   0  0  0  0  0  0  0  0  0  0  0  0
   -3.0644    8.1123   -2.9452 N   0  0  0  0  0  0  0  0  0  0  0  0
   -4.4299    8.0371   -2.9495 C   0  0  0  0  0  0  0  0  0  0  0  0
   -5.1455    8.4505   -4.2168 C   0  0  0  0  0  0  0  0  0  0  0  0
   -6.3296    7.6377   -4.4766 N   0  0  0  0  0  0  0  0  0  0  0  0
   -6.3709    6.6210   -5.3500 C   0  0  0  0  0  0  0  0  0  0  0  0
   -7.7204    6.0036   -5.5301 C   0  0  0  0  0  0  0  0  0  0  0  0
   -7.7945    4.4968   -5.1175 C   0  0  0  0  0  0  0  0  0  0  0  0
   -9.1889    3.9426   -5.4022 C   0  0  0  0  0  0  0  0  0  0  0  0
   -7.4851    4.3338   -3.6252 C   0  0  0  0  0  0  0  0  0  0  0  0
   -8.1331    6.1755   -6.8956 N   0  0  0  0  0  0  0  0  0  0  0  0
   -9.1295    7.0612   -7.1704 C   0  0  0  0  0  0  0  0  0  0  0  0
   -9.7151    7.0701   -8.5561 C   0  0  0  0  0  0  0  0  0  0  0  0
  -10.8471    8.0430   -8.7987 C   0  0  0  0  0  0  0  0  0  0  0  0
  -11.3483    7.8410  -10.1866 C   0  0  0  0  0  0  0  0  0  0  0  0
  -11.6503    6.4047  -10.4223 N   0  0  0  0  0  0  0  0  0  0  0  0
  -12.7953    5.9148  -10.8914 C   0  0  0  0  0  0  0  0  0  0  0  0
  -13.7675    6.8175  -11.1950 C   0  0  0  0  0  0  0  0  0  0  0  0
  -14.6243    7.4678  -11.4826 C   0  0  0  0  0  0  0  0  0  0  0  0
  -15.6311    8.4115  -11.7722 C   0  0  0  0  0  0  0  0  0  0  0  0
  -16.4304    8.6930  -10.5724 N   0  0  0  0  0  0  0  0  0  0  0  0
  -15.9836    8.1003   -9.3218 C   0  0  0  0  0  0  0  0  0  0  0  0
  -16.9512   10.0129  -10.4207 C   0  0  0  0  0  0  0  0  0  0  0  0
  -14.9487    9.6998  -12.2907 C   0  0  0  0  0  0  0  0  0  0  0  0
  -16.5265    7.8020  -12.8544 C   0  0  0  0  0  0  0  0  0  0  0  0
  -12.9698    4.7104  -11.0361 O   0  0  0  0  0  0  0  0  0  0  0  0
  -10.6587    5.4436  -10.1153 C   0  0  0  0  0  0  0  0  0  0  0  0
  -10.2807    5.6816   -8.7314 C   0  0  0  0  0  0  0  0  0  0  0  0
   -9.5760    7.8096   -6.2904 O   0  0  0  0  0  0  0  0  0  0  0  0
   -7.4128    5.3591   -7.9176 C   0  0  0  0  0  0  0  0  0  0  0  0
   -5.3868    6.2674   -5.9898 O   0  0  0  0  0  0  0  0  0  0  0  0
   -5.5395    9.9450   -4.0399 C   0  0  0  0  0  0  0  0  0  0  0  0
   -5.6417   10.8042   -5.2756 C   0  0  0  0  0  0  0  0  0  0  0  0
   -4.9872   10.2699   -6.5375 C   0  0  0  0  0  0  0  0  0  0  0  0
   -5.2307   11.1594   -7.6758 N   0  0  0  0  0  0  0  0  0  0  0  0
   -6.0552   12.3915   -7.3920 C   0  0  0  0  0  0  0  0  0  0  0  0
   -7.2234   12.0824   -6.5488 C   0  0  0  0  0  0  0  0  0  0  0  0
   -7.0121   11.0857   -5.5411 O   0  0  0  0  0  0  0  0  0  0  0  0
   -5.0736    7.7569   -1.9611 O   0  0  0  0  0  0  0  0  0  0  0  0
   -2.2391    7.8592   -1.7628 C   0  0  0  0  0  0  0  0  0  0  0  0
   -1.4473    9.1574   -1.4352 C   0  0  0  0  0  0  0  0  0  0  0  0
   -0.6928    9.6428   -2.6515 C   0  0  0  0  0  0  0  0  0  0  0  0
   -0.6272    9.2180   -5.8944 O   0  0  0  0  0  0  0  0  0  0  0  0
   -1.9537   12.3085   -9.0072 C   0  0  0  0  0  0  0  0  0  0  0  0
   -1.8211   11.5310  -10.1472 C   0  0  0  0  0  0  0  0  0  0  0  0
   -2.8294   10.5755  -10.4559 C   0  0  0  0  0  0  0  0  0  0  0  0
   -3.9210   10.4572   -9.5961 C   0  0  0  0  0  0  0  0  0  0  0  0
   -4.0545   11.2911   -8.4723 C   0  0  0  0  0  0  0  0  0  0  0  0
   -3.0261   12.2023   -8.1810 C   0  0  0  0  0  0  0  0  0  0  0  0
   -8.7114    7.3753   -9.4636 F   0  0  0  0  0  0  0  0  0  0  0  0
  1  2  1  0  0  0  0
  2  3  1  0  0  0  0
  2  5  1  0  0  0  0
  3  4  1  0  0  0  0
  5  6  4  0  0  0  0
  5 10  4  0  0  0  0
  6  7  4  0  0  0  0
  7  8  4  0  0  0  0
  8  9  4  0  0  0  0
  9 10  4  0  0  0  0
 10 11  1  0  0  0  0
 11 12  4  0  0  0  0
 11 15  4  0  0  0  0
 12 13  1  0  0  0  0
 12 68  4  0  0  0  0
 13 14  1  0  0  0  0
 15 16  1  0  0  0  0
 15 67  4  0  0  0  0
 16 17  1  0  0  0  0
 17 18  1  0  0  0  0
 17 19  1  0  0  0  0
 17 20  1  0  0  0  0
 20 21  1  0  0  0  0
 21 22  1  0  0  0  0
 22 23  1  0  0  0  0
 22 66  2  0  0  0  0
 23 24  1  0  0  0  0
 23 65  1  0  0  0  0
 24 25  1  0  0  0  0
 25 26  1  0  0  0  0
 25 63  1  0  0  0  0
 26 27  1  0  0  0  0
 26 62  2  0  0  0  0
 27 28  1  0  0  0  0
 27 55  1  0  0  0  0
 28 29  1  0  0  0  0
 29 30  1  0  0  0  0
 29 54  2  0  0  0  0
 30 31  1  0  0  0  0
 30 34  1  0  0  0  0
 31 32  1  0  0  0  0
 31 33  1  0  0  0  0
 34 35  1  0  0  0  0
 34 53  1  0  0  0  0
 35 36  1  0  0  0  0
 35 52  2  0  0  0  0
 36 37  1  0  0  0  0
 36 51  1  0  0  0  0
 36 73  1  0  0  0  0
 37 38  1  0  0  0  0
 38 39  1  0  0  0  0
 39 40  1  0  0  0  0
 39 50  1  0  0  0  0
 40 41  1  0  0  0  0
 40 49  2  0  0  0  0
 41 42  1  0  0  0  0
 42 43  1  0  0  0  0
 43 44  1  0  0  0  0
 43 47  1  0  0  0  0
 43 48  1  0  0  0  0
 44 45  1  0  0  0  0
 44 46  1  0  0  0  0
 50 51  1  0  0  0  0
 55 56  1  0  0  0  0
 56 57  1  0  0  0  0
 56 61  1  0  0  0  0
 57 58  1  0  0  0  0
 58 59  1  0  0  0  0
 58 71  1  0  0  0  0
 59 60  1  0  0  0  0
 60 61  1  0  0  0  0
 63 64  1  0  0  0  0
 64 65  1  0  0  0  0
 67 68  4  0  0  0  0
 67 72  4  0  0  0  0
 68 69  4  0  0  0  0
 69 70  4  0  0  0  0
 70 71  4  0  0  0  0
 71 72  4  0  0  0  0
M  END
$$$$
