mol_ETKDG1_49
  PyMOL3.1          3D                             0

 73 79  0  0  0  0  0  0  0  0999 V2000
    0.0342   17.1508  -11.1418 C   0  0  0  0  0  0  0  0  0  0  0  0
   -0.1625   15.7014  -10.7441 C   0  0  0  0  0  0  0  0  0  0  0  0
   -0.8842   15.0303  -11.7196 O   0  0  0  0  0  0  0  0  0  0  0  0
   -2.3085   15.0953  -11.6062 C   0  0  0  0  0  0  0  0  0  0  0  0
    1.1311   14.9881  -10.5386 C   0  0  0  0  0  0  0  0  0  0  0  0
    2.2547   15.6274  -10.8153 N   0  0  0  0  0  0  0  0  0  0  0  0
    3.4449   15.0350  -10.6793 C   0  0  0  0  0  0  0  0  0  0  0  0
    3.5418   13.7259  -10.2189 C   0  0  0  0  0  0  0  0  0  0  0  0
    2.3978   13.0582   -9.9279 C   0  0  0  0  0  0  0  0  0  0  0  0
    1.1880   13.6722  -10.1012 C   0  0  0  0  0  0  0  0  0  0  0  0
   -0.0223   12.9553   -9.7869 C   0  0  0  0  0  0  0  0  0  0  0  0
   -0.5783   11.9872  -10.5755 N   0  0  0  0  0  0  0  0  0  0  0  0
   -0.0546   11.4514  -11.8350 C   0  0  0  0  0  0  0  0  0  0  0  0
    0.5682   10.0703  -11.5992 C   0  0  0  0  0  0  0  0  0  0  0  0
   -0.8465   13.1722   -8.6870 C   0  0  0  0  0  0  0  0  0  0  0  0
   -0.7031   14.0991   -7.5327 C   0  0  0  0  0  0  0  0  0  0  0  0
    0.0962   13.5277   -6.3388 C   0  0  0  0  0  0  0  0  0  0  0  0
   -0.4300   14.1498   -5.0371 C   0  0  0  0  0  0  0  0  0  0  0  0
    1.6013   13.8581   -6.4579 C   0  0  0  0  0  0  0  0  0  0  0  0
    0.0416   12.0648   -6.2329 C   0  0  0  0  0  0  0  0  0  0  0  0
   -0.6508   11.4688   -5.1148 O   0  0  0  0  0  0  0  0  0  0  0  0
   -0.9606   10.1043   -5.0523 C   0  0  0  0  0  0  0  0  0  0  0  0
   -1.6912    9.7406   -3.7984 C   0  0  0  0  0  0  0  0  0  0  0  0
   -2.3761    8.4763   -4.0036 N   0  0  0  0  0  0  0  0  0  0  0  0
   -3.0625    8.0343   -2.8961 N   0  0  0  0  0  0  0  0  0  0  0  0
   -4.4234    7.9401   -2.8987 C   0  0  0  0  0  0  0  0  0  0  0  0
   -5.1336    8.2312   -4.1984 C   0  0  0  0  0  0  0  0  0  0  0  0
   -6.3206    7.4264   -4.3873 N   0  0  0  0  0  0  0  0  0  0  0  0
   -6.4122    6.4593   -5.3023 C   0  0  0  0  0  0  0  0  0  0  0  0
   -7.7734    5.8512   -5.4245 C   0  0  0  0  0  0  0  0  0  0  0  0
   -7.8171    4.3465   -5.0079 C   0  0  0  0  0  0  0  0  0  0  0  0
   -9.1935    3.7642   -5.2783 C   0  0  0  0  0  0  0  0  0  0  0  0
   -7.4873    4.2090   -3.5158 C   0  0  0  0  0  0  0  0  0  0  0  0
   -8.2590    6.0271   -6.7738 N   0  0  0  0  0  0  0  0  0  0  0  0
   -9.2702    6.9109   -6.9667 C   0  0  0  0  0  0  0  0  0  0  0  0
  -10.0192    6.9246   -8.2805 C   0  0  0  0  0  0  0  0  0  0  0  0
  -11.2324    7.8563   -8.2090 C   0  0  0  0  0  0  0  0  0  0  0  0
  -12.0778    7.7016   -9.4168 C   0  0  0  0  0  0  0  0  0  0  0  0
  -12.4090    6.2751   -9.6072 N   0  0  0  0  0  0  0  0  0  0  0  0
  -13.6462    5.7236   -9.5286 C   0  0  0  0  0  0  0  0  0  0  0  0
  -14.6911    6.4587   -8.9647 C   0  0  0  0  0  0  0  0  0  0  0  0
  -15.6219    6.9452   -8.5054 C   0  0  0  0  0  0  0  0  0  0  0  0
  -16.6941    7.6304   -7.8170 C   0  0  0  0  0  0  0  0  0  0  0  0
  -16.2695    7.9183   -6.4317 N   0  0  0  0  0  0  0  0  0  0  0  0
  -15.8708    6.7084   -5.6862 C   0  0  0  0  0  0  0  0  0  0  0  0
  -15.2519    8.9831   -6.3256 C   0  0  0  0  0  0  0  0  0  0  0  0
  -17.9304    6.7116   -7.7813 C   0  0  0  0  0  0  0  0  0  0  0  0
  -17.0080    8.9353   -8.5666 C   0  0  0  0  0  0  0  0  0  0  0  0
  -13.8505    4.5665   -9.8952 O   0  0  0  0  0  0  0  0  0  0  0  0
  -11.3036    5.3899   -9.7513 C   0  0  0  0  0  0  0  0  0  0  0  0
  -10.5509    5.5064   -8.4698 C   0  0  0  0  0  0  0  0  0  0  0  0
   -9.6234    7.6715   -6.0521 O   0  0  0  0  0  0  0  0  0  0  0  0
   -7.6041    5.2306   -7.8447 C   0  0  0  0  0  0  0  0  0  0  0  0
   -5.4621    6.1248   -6.0031 O   0  0  0  0  0  0  0  0  0  0  0  0
   -5.5741    9.7193   -4.1578 C   0  0  0  0  0  0  0  0  0  0  0  0
   -6.0157   10.1844   -5.5292 C   0  0  0  0  0  0  0  0  0  0  0  0
   -4.7749   10.4624   -6.3370 C   0  0  0  0  0  0  0  0  0  0  0  0
   -5.1341   11.0648   -7.6291 N   0  0  0  0  0  0  0  0  0  0  0  0
   -6.0549   12.2757   -7.4198 C   0  0  0  0  0  0  0  0  0  0  0  0
   -7.2661   11.8703   -6.6470 C   0  0  0  0  0  0  0  0  0  0  0  0
   -6.8455   11.3245   -5.3855 O   0  0  0  0  0  0  0  0  0  0  0  0
   -5.0678    7.7032   -1.9079 O   0  0  0  0  0  0  0  0  0  0  0  0
   -2.2375    7.8026   -1.7184 C   0  0  0  0  0  0  0  0  0  0  0  0
   -1.4811    9.1179   -1.3905 C   0  0  0  0  0  0  0  0  0  0  0  0
   -0.7336    9.6143   -2.6141 C   0  0  0  0  0  0  0  0  0  0  0  0
   -0.7196    9.1989   -5.8942 O   0  0  0  0  0  0  0  0  0  0  0  0
   -1.8994   12.3062   -8.8480 C   0  0  0  0  0  0  0  0  0  0  0  0
   -1.7088   11.5709  -10.0092 C   0  0  0  0  0  0  0  0  0  0  0  0
   -2.6794   10.6014  -10.3743 C   0  0  0  0  0  0  0  0  0  0  0  0
   -3.7944   10.4329   -9.5589 C   0  0  0  0  0  0  0  0  0  0  0  0
   -3.9802   11.2289   -8.4081 C   0  0  0  0  0  0  0  0  0  0  0  0
   -2.9855   12.1532   -8.0605 C   0  0  0  0  0  0  0  0  0  0  0  0
   -9.1630    7.2964   -9.3059 F   0  0  0  0  0  0  0  0  0  0  0  0
  1  2  1  0  0  0  0
  2  3  1  0  0  0  0
  2  5  1  0  0  0  0
  3  4  1  0  0  0  0
  5  6  4  0  0  0  0
  5 10  4  0  0  0  0
  6  7  4  0  0  0  0
  7  8  4  0  0  0  0
  8  9  4  0  0  0  0
  9 10  4  0  0  0  0
 10 11  1  0  0  0  0
 11 12  4  0  0  0  0
 11 15  4  0  0  0  0
 12 13  1  0  0  0  0
 12 68  4  0  0  0  0
 13 14  1  0  0  0  0
 15 16  1  0  0  0  0
 15 67  4  0  0  0  0
 16 17  1  0  0  0  0
 17 18  1  0  0  0  0
 17 19  1  0  0  0  0
 17 20  1  0  0  0  0
 20 21  1  0  0  0  0
 21 22  1  0  0  0  0
 22 23  1  0  0  0  0
 22 66  2  0  0  0  0
 23 24  1  0  0  0  0
 23 65  1  0  0  0  0
 24 25  1  0  0  0  0
 25 26  1  0  0  0  0
 25 63  1  0  0  0  0
 26 27  1  0  0  0  0
 26 62  2  0  0  0  0
 27 28  1  0  0  0  0
 27 55  1  0  0  0  0
 28 29  1  0  0  0  0
 29 30  1  0  0  0  0
 29 54  2  0  0  0  0
 30 31  1  0  0  0  0
 30 34  1  0  0  0  0
 31 32  1  0  0  0  0
 31 33  1  0  0  0  0
 34 35  1  0  0  0  0
 34 53  1  0  0  0  0
 35 36  1  0  0  0  0
 35 52  2  0  0  0  0
 36 37  1  0  0  0  0
 36 51  1  0  0  0  0
 36 73  1  0  0  0  0
 37 38  1  0  0  0  0
 38 39  1  0  0  0  0
 39 40  1  0  0  0  0
 39 50  1  0  0  0  0
 40 41  1  0  0  0  0
 40 49  2  0  0  0  0
 41 42  1  0  0  0  0
 42 43  1  0  0  0  0
 43 44  1  0  0  0  0
 43 47  1  0  0  0  0
 43 48  1  0  0  0  0
 44 45  1  0  0  0  0
 44 46  1  0  0  0  0
 50 51  1  0  0  0  0
 55 56  1  0  0  0  0
 56 57  1  0  0  0  0
 56 61  1  0  0  0  0
 57 58  1  0  0  0  0
 58 59  1  0  0  0  0
 58 71  1  0  0  0  0
 59 60  1  0  0  0  0
 60 61  1  0  0  0  0
 63 64  1  0  0  0  0
 64 65  1  0  0  0  0
 67 68  4  0  0  0  0
 67 72  4  0  0  0  0
 68 69  4  0  0  0  0
 69 70  4  0  0  0  0
 70 71  4  0  0  0  0
 71 72  4  0  0  0  0
M  END
$$$$
