mol_ETKDG5_145
  PyMOL3.1          3D                             0

 73 79  0  0  0  0  0  0  0  0999 V2000
   -0.2173   16.6726  -11.5838 C   0  0  0  0  0  0  0  0  0  0  0  0
   -0.3313   15.2075  -11.2520 C   0  0  0  0  0  0  0  0  0  0  0  0
   -0.9015   14.4820  -12.3073 O   0  0  0  0  0  0  0  0  0  0  0  0
   -2.3234   14.4722  -12.3699 C   0  0  0  0  0  0  0  0  0  0  0  0
    0.9770   14.5817  -10.9404 C   0  0  0  0  0  0  0  0  0  0  0  0
    2.0911   15.2125  -11.2858 N   0  0  0  0  0  0  0  0  0  0  0  0
    3.2892   14.6662  -11.0323 C   0  0  0  0  0  0  0  0  0  0  0  0
    3.3977   13.4399  -10.3858 C   0  0  0  0  0  0  0  0  0  0  0  0
    2.2592   12.7914  -10.0322 C   0  0  0  0  0  0  0  0  0  0  0  0
    1.0493   13.3460  -10.3273 C   0  0  0  0  0  0  0  0  0  0  0  0
   -0.1626   12.6566   -9.9468 C   0  0  0  0  0  0  0  0  0  0  0  0
   -0.7325   11.6365  -10.6486 N   0  0  0  0  0  0  0  0  0  0  0  0
   -0.2254   10.9837  -11.8492 C   0  0  0  0  0  0  0  0  0  0  0  0
    0.4077    9.6367  -11.4690 C   0  0  0  0  0  0  0  0  0  0  0  0
   -0.9665   12.9768   -8.8668 C   0  0  0  0  0  0  0  0  0  0  0  0
   -0.7889   13.9977   -7.8054 C   0  0  0  0  0  0  0  0  0  0  0  0
   -0.0787   13.4895   -6.5099 C   0  0  0  0  0  0  0  0  0  0  0  0
   -0.7317   14.1755   -5.3130 C   0  0  0  0  0  0  0  0  0  0  0  0
    1.4169   13.8832   -6.5427 C   0  0  0  0  0  0  0  0  0  0  0  0
   -0.0907   12.0642   -6.3307 C   0  0  0  0  0  0  0  0  0  0  0  0
   -0.7631   11.5002   -5.1670 O   0  0  0  0  0  0  0  0  0  0  0  0
   -1.0221   10.1237   -5.0338 C   0  0  0  0  0  0  0  0  0  0  0  0
   -1.7348    9.7830   -3.7690 C   0  0  0  0  0  0  0  0  0  0  0  0
   -2.4229    8.5216   -3.9658 N   0  0  0  0  0  0  0  0  0  0  0  0
   -3.0979    8.0774   -2.8488 N   0  0  0  0  0  0  0  0  0  0  0  0
   -4.4557    7.9722   -2.8428 C   0  0  0  0  0  0  0  0  0  0  0  0
   -5.1629    8.2750   -4.1283 C   0  0  0  0  0  0  0  0  0  0  0  0
   -6.3446    7.4699   -4.3205 N   0  0  0  0  0  0  0  0  0  0  0  0
   -6.4240    6.5102   -5.2377 C   0  0  0  0  0  0  0  0  0  0  0  0
   -7.7953    5.9389   -5.4021 C   0  0  0  0  0  0  0  0  0  0  0  0
   -7.8922    4.4270   -5.0504 C   0  0  0  0  0  0  0  0  0  0  0  0
   -9.3085    3.9262   -5.2869 C   0  0  0  0  0  0  0  0  0  0  0  0
   -7.5087    4.2063   -3.5812 C   0  0  0  0  0  0  0  0  0  0  0  0
   -8.2232    6.1953   -6.7511 N   0  0  0  0  0  0  0  0  0  0  0  0
   -9.1147    7.1867   -6.9630 C   0  0  0  0  0  0  0  0  0  0  0  0
   -9.7417    7.3342   -8.3173 C   0  0  0  0  0  0  0  0  0  0  0  0
  -10.7333    8.4783   -8.3856 C   0  0  0  0  0  0  0  0  0  0  0  0
  -11.3852    8.4684   -9.7188 C   0  0  0  0  0  0  0  0  0  0  0  0
  -11.9482    7.1286   -9.9499 N   0  0  0  0  0  0  0  0  0  0  0  0
  -13.2468    6.8578  -10.0882 C   0  0  0  0  0  0  0  0  0  0  0  0
  -14.1516    7.8980   -9.9960 C   0  0  0  0  0  0  0  0  0  0  0  0
  -14.9695    8.6885   -9.9650 C   0  0  0  0  0  0  0  0  0  0  0  0
  -15.9253    9.7496   -9.8385 C   0  0  0  0  0  0  0  0  0  0  0  0
  -15.3346   10.8826   -9.1041 N   0  0  0  0  0  0  0  0  0  0  0  0
  -14.8896   10.5308   -7.7480 C   0  0  0  0  0  0  0  0  0  0  0  0
  -14.2886   11.6046   -9.8638 C   0  0  0  0  0  0  0  0  0  0  0  0
  -17.1401    9.2301   -9.0723 C   0  0  0  0  0  0  0  0  0  0  0  0
  -16.3454   10.2006  -11.2353 C   0  0  0  0  0  0  0  0  0  0  0  0
  -13.6326    5.7103  -10.2706 O   0  0  0  0  0  0  0  0  0  0  0  0
  -11.0512    6.0172   -9.9255 C   0  0  0  0  0  0  0  0  0  0  0  0
  -10.4788    6.0274   -8.5666 C   0  0  0  0  0  0  0  0  0  0  0  0
   -9.4478    7.9424   -6.0429 O   0  0  0  0  0  0  0  0  0  0  0  0
   -7.6136    5.3511   -7.8248 C   0  0  0  0  0  0  0  0  0  0  0  0
   -5.4718    6.1604   -5.9284 O   0  0  0  0  0  0  0  0  0  0  0  0
   -5.6116    9.7593   -4.0814 C   0  0  0  0  0  0  0  0  0  0  0  0
   -6.0702   10.2139   -5.4495 C   0  0  0  0  0  0  0  0  0  0  0  0
   -4.8380   10.4937   -6.2660 C   0  0  0  0  0  0  0  0  0  0  0  0
   -5.2321   11.0316   -7.5729 N   0  0  0  0  0  0  0  0  0  0  0  0
   -6.1343   12.2512   -7.3950 C   0  0  0  0  0  0  0  0  0  0  0  0
   -7.3328   11.8788   -6.5763 C   0  0  0  0  0  0  0  0  0  0  0  0
   -6.8929   11.3561   -5.3098 O   0  0  0  0  0  0  0  0  0  0  0  0
   -5.0889    7.7183   -1.8487 O   0  0  0  0  0  0  0  0  0  0  0  0
   -2.2633    7.8504   -1.6773 C   0  0  0  0  0  0  0  0  0  0  0  0
   -1.4993    9.1648   -1.3646 C   0  0  0  0  0  0  0  0  0  0  0  0
   -0.7618    9.6453   -2.5961 C   0  0  0  0  0  0  0  0  0  0  0  0
   -0.7507    9.1929   -5.8316 O   0  0  0  0  0  0  0  0  0  0  0  0
   -2.0291   12.1153   -8.9491 C   0  0  0  0  0  0  0  0  0  0  0  0
   -1.8601   11.2873  -10.0391 C   0  0  0  0  0  0  0  0  0  0  0  0
   -2.8495   10.3008  -10.3120 C   0  0  0  0  0  0  0  0  0  0  0  0
   -3.9414   10.2191   -9.4711 C   0  0  0  0  0  0  0  0  0  0  0  0
   -4.0984   11.1138   -8.3920 C   0  0  0  0  0  0  0  0  0  0  0  0
   -3.0929   12.0434   -8.1388 C   0  0  0  0  0  0  0  0  0  0  0  0
   -8.7445    7.5595   -9.2653 F   0  0  0  0  0  0  0  0  0  0  0  0
  1  2  1  0  0  0  0
  2  3  1  0  0  0  0
  2  5  1  0  0  0  0
  3  4  1  0  0  0  0
  5  6  4  0  0  0  0
  5 10  4  0  0  0  0
  6  7  4  0  0  0  0
  7  8  4  0  0  0  0
  8  9  4  0  0  0  0
  9 10  4  0  0  0  0
 10 11  1  0  0  0  0
 11 12  4  0  0  0  0
 11 15  4  0  0  0  0
 12 13  1  0  0  0  0
 12 68  4  0  0  0  0
 13 14  1  0  0  0  0
 15 16  1  0  0  0  0
 15 67  4  0  0  0  0
 16 17  1  0  0  0  0
 17 18  1  0  0  0  0
 17 19  1  0  0  0  0
 17 20  1  0  0  0  0
 20 21  1  0  0  0  0
 21 22  1  0  0  0  0
 22 23  1  0  0  0  0
 22 66  2  0  0  0  0
 23 24  1  0  0  0  0
 23 65  1  0  0  0  0
 24 25  1  0  0  0  0
 25 26  1  0  0  0  0
 25 63  1  0  0  0  0
 26 27  1  0  0  0  0
 26 62  2  0  0  0  0
 27 28  1  0  0  0  0
 27 55  1  0  0  0  0
 28 29  1  0  0  0  0
 29 30  1  0  0  0  0
 29 54  2  0  0  0  0
 30 31  1  0  0  0  0
 30 34  1  0  0  0  0
 31 32  1  0  0  0  0
 31 33  1  0  0  0  0
 34 35  1  0  0  0  0
 34 53  1  0  0  0  0
 35 36  1  0  0  0  0
 35 52  2  0  0  0  0
 36 37  1  0  0  0  0
 36 51  1  0  0  0  0
 36 73  1  0  0  0  0
 37 38  1  0  0  0  0
 38 39  1  0  0  0  0
 39 40  1  0  0  0  0
 39 50  1  0  0  0  0
 40 41  1  0  0  0  0
 40 49  2  0  0  0  0
 41 42  1  0  0  0  0
 42 43  1  0  0  0  0
 43 44  1  0  0  0  0
 43 47  1  0  0  0  0
 43 48  1  0  0  0  0
 44 45  1  0  0  0  0
 44 46  1  0  0  0  0
 50 51  1  0  0  0  0
 55 56  1  0  0  0  0
 56 57  1  0  0  0  0
 56 61  1  0  0  0  0
 57 58  1  0  0  0  0
 58 59  1  0  0  0  0
 58 71  1  0  0  0  0
 59 60  1  0  0  0  0
 60 61  1  0  0  0  0
 63 64  1  0  0  0  0
 64 65  1  0  0  0  0
 67 68  4  0  0  0  0
 67 72  4  0  0  0  0
 68 69  4  0  0  0  0
 69 70  4  0  0  0  0
 70 71  4  0  0  0  0
 71 72  4  0  0  0  0
M  END
$$$$
