mol_ETKDG3_80
  PyMOL3.1          3D                             0

 73 79  0  0  0  0  0  0  0  0999 V2000
    0.0183   14.9980  -13.2813 C   0  0  0  0  0  0  0  0  0  0  0  0
   -0.1259   14.5914  -11.8288 C   0  0  0  0  0  0  0  0  0  0  0  0
   -0.5411   15.6350  -11.0100 O   0  0  0  0  0  0  0  0  0  0  0  0
   -1.9374   15.8976  -10.9163 C   0  0  0  0  0  0  0  0  0  0  0  0
    1.1467   14.0833  -11.2753 C   0  0  0  0  0  0  0  0  0  0  0  0
    2.2784   14.6745  -11.6264 N   0  0  0  0  0  0  0  0  0  0  0  0
    3.4585   14.2371  -11.1526 C   0  0  0  0  0  0  0  0  0  0  0  0
    3.5211   13.1333  -10.2968 C   0  0  0  0  0  0  0  0  0  0  0  0
    2.3579   12.5225   -9.9443 C   0  0  0  0  0  0  0  0  0  0  0  0
    1.1770   12.9983  -10.4277 C   0  0  0  0  0  0  0  0  0  0  0  0
   -0.0461   12.3751  -10.0227 C   0  0  0  0  0  0  0  0  0  0  0  0
   -0.6454   11.3591  -10.6998 N   0  0  0  0  0  0  0  0  0  0  0  0
   -0.1631   10.6641  -11.8998 C   0  0  0  0  0  0  0  0  0  0  0  0
    0.4301    9.3139  -11.5114 C   0  0  0  0  0  0  0  0  0  0  0  0
   -0.8302   12.7561   -8.9523 C   0  0  0  0  0  0  0  0  0  0  0  0
   -0.6430   13.8231   -7.9131 C   0  0  0  0  0  0  0  0  0  0  0  0
    0.0150   13.3538   -6.5825 C   0  0  0  0  0  0  0  0  0  0  0  0
   -0.6704   14.0827   -5.4227 C   0  0  0  0  0  0  0  0  0  0  0  0
    1.5079   13.7470   -6.5882 C   0  0  0  0  0  0  0  0  0  0  0  0
   -0.0075   11.9451   -6.3559 C   0  0  0  0  0  0  0  0  0  0  0  0
   -0.6955   11.4142   -5.1812 O   0  0  0  0  0  0  0  0  0  0  0  0
   -0.9739   10.0436   -5.0377 C   0  0  0  0  0  0  0  0  0  0  0  0
   -1.7019    9.7210   -3.7818 C   0  0  0  0  0  0  0  0  0  0  0  0
   -2.3941    8.4500   -3.9843 N   0  0  0  0  0  0  0  0  0  0  0  0
   -3.0754    8.0064   -2.8790 N   0  0  0  0  0  0  0  0  0  0  0  0
   -4.4344    7.8909   -2.8972 C   0  0  0  0  0  0  0  0  0  0  0  0
   -5.1395    8.1928   -4.1977 C   0  0  0  0  0  0  0  0  0  0  0  0
   -6.3178    7.3660   -4.4058 N   0  0  0  0  0  0  0  0  0  0  0  0
   -6.4012    6.3996   -5.3359 C   0  0  0  0  0  0  0  0  0  0  0  0
   -7.7573    5.7882   -5.4637 C   0  0  0  0  0  0  0  0  0  0  0  0
   -7.8041    4.2856   -5.0595 C   0  0  0  0  0  0  0  0  0  0  0  0
   -9.2064    3.7353   -5.2781 C   0  0  0  0  0  0  0  0  0  0  0  0
   -7.4257    4.1406   -3.5799 C   0  0  0  0  0  0  0  0  0  0  0  0
   -8.2496    5.9566   -6.8105 N   0  0  0  0  0  0  0  0  0  0  0  0
   -9.2089    6.8909   -7.0183 C   0  0  0  0  0  0  0  0  0  0  0  0
   -9.9490    6.9177   -8.3344 C   0  0  0  0  0  0  0  0  0  0  0  0
  -10.8619    8.1222   -8.4801 C   0  0  0  0  0  0  0  0  0  0  0  0
  -11.6051    8.0073   -9.7533 C   0  0  0  0  0  0  0  0  0  0  0  0
  -12.3030    6.7084   -9.8183 N   0  0  0  0  0  0  0  0  0  0  0  0
  -13.6354    6.5791  -10.0098 C   0  0  0  0  0  0  0  0  0  0  0  0
  -14.4054    7.7141  -10.1495 C   0  0  0  0  0  0  0  0  0  0  0  0
  -15.1646    8.5319  -10.3111 C   0  0  0  0  0  0  0  0  0  0  0  0
  -16.0184    9.6783  -10.4392 C   0  0  0  0  0  0  0  0  0  0  0  0
  -17.2256    9.4622   -9.6092 N   0  0  0  0  0  0  0  0  0  0  0  0
  -16.9336    9.4090   -8.1604 C   0  0  0  0  0  0  0  0  0  0  0  0
  -18.0373    8.2958  -10.0485 C   0  0  0  0  0  0  0  0  0  0  0  0
  -15.2551   10.9413   -9.9749 C   0  0  0  0  0  0  0  0  0  0  0  0
  -16.3812    9.8238  -11.9199 C   0  0  0  0  0  0  0  0  0  0  0  0
  -14.1582    5.4806  -10.0511 O   0  0  0  0  0  0  0  0  0  0  0  0
  -11.5216    5.5277   -9.6462 C   0  0  0  0  0  0  0  0  0  0  0  0
  -10.8116    5.6594   -8.3513 C   0  0  0  0  0  0  0  0  0  0  0  0
   -9.5193    7.6818   -6.1182 O   0  0  0  0  0  0  0  0  0  0  0  0
   -7.6693    5.0839   -7.8654 C   0  0  0  0  0  0  0  0  0  0  0  0
   -5.4478    6.0835   -6.0317 O   0  0  0  0  0  0  0  0  0  0  0  0
   -5.5869    9.6729   -4.1376 C   0  0  0  0  0  0  0  0  0  0  0  0
   -6.0235   10.1633   -5.4928 C   0  0  0  0  0  0  0  0  0  0  0  0
   -4.7947   10.3574   -6.3394 C   0  0  0  0  0  0  0  0  0  0  0  0
   -5.1559   10.9594   -7.6262 N   0  0  0  0  0  0  0  0  0  0  0  0
   -5.9800   12.2441   -7.3974 C   0  0  0  0  0  0  0  0  0  0  0  0
   -7.1660   11.9570   -6.5789 C   0  0  0  0  0  0  0  0  0  0  0  0
   -6.7506   11.3745   -5.3222 O   0  0  0  0  0  0  0  0  0  0  0  0
   -5.0787    7.6435   -1.9056 O   0  0  0  0  0  0  0  0  0  0  0  0
   -2.2573    7.7902   -1.6983 C   0  0  0  0  0  0  0  0  0  0  0  0
   -1.4979    9.1088   -1.3740 C   0  0  0  0  0  0  0  0  0  0  0  0
   -0.7512    9.5941   -2.5991 C   0  0  0  0  0  0  0  0  0  0  0  0
   -0.7093    9.0920   -5.8159 O   0  0  0  0  0  0  0  0  0  0  0  0
   -1.9187   11.9217   -9.0114 C   0  0  0  0  0  0  0  0  0  0  0  0
   -1.7816   11.0572  -10.0866 C   0  0  0  0  0  0  0  0  0  0  0  0
   -2.7972   10.0962  -10.3425 C   0  0  0  0  0  0  0  0  0  0  0  0
   -3.8903   10.0700   -9.4997 C   0  0  0  0  0  0  0  0  0  0  0  0
   -4.0151   10.9931   -8.4380 C   0  0  0  0  0  0  0  0  0  0  0  0
   -2.9735   11.8913   -8.2060 C   0  0  0  0  0  0  0  0  0  0  0  0
   -9.0547    6.9374   -9.3901 F   0  0  0  0  0  0  0  0  0  0  0  0
  1  2  1  0  0  0  0
  2  3  1  0  0  0  0
  2  5  1  0  0  0  0
  3  4  1  0  0  0  0
  5  6  4  0  0  0  0
  5 10  4  0  0  0  0
  6  7  4  0  0  0  0
  7  8  4  0  0  0  0
  8  9  4  0  0  0  0
  9 10  4  0  0  0  0
 10 11  1  0  0  0  0
 11 12  4  0  0  0  0
 11 15  4  0  0  0  0
 12 13  1  0  0  0  0
 12 68  4  0  0  0  0
 13 14  1  0  0  0  0
 15 16  1  0  0  0  0
 15 67  4  0  0  0  0
 16 17  1  0  0  0  0
 17 18  1  0  0  0  0
 17 19  1  0  0  0  0
 17 20  1  0  0  0  0
 20 21  1  0  0  0  0
 21 22  1  0  0  0  0
 22 23  1  0  0  0  0
 22 66  2  0  0  0  0
 23 24  1  0  0  0  0
 23 65  1  0  0  0  0
 24 25  1  0  0  0  0
 25 26  1  0  0  0  0
 25 63  1  0  0  0  0
 26 27  1  0  0  0  0
 26 62  2  0  0  0  0
 27 28  1  0  0  0  0
 27 55  1  0  0  0  0
 28 29  1  0  0  0  0
 29 30  1  0  0  0  0
 29 54  2  0  0  0  0
 30 31  1  0  0  0  0
 30 34  1  0  0  0  0
 31 32  1  0  0  0  0
 31 33  1  0  0  0  0
 34 35  1  0  0  0  0
 34 53  1  0  0  0  0
 35 36  1  0  0  0  0
 35 52  2  0  0  0  0
 36 37  1  0  0  0  0
 36 51  1  0  0  0  0
 36 73  1  0  0  0  0
 37 38  1  0  0  0  0
 38 39  1  0  0  0  0
 39 40  1  0  0  0  0
 39 50  1  0  0  0  0
 40 41  1  0  0  0  0
 40 49  2  0  0  0  0
 41 42  1  0  0  0  0
 42 43  1  0  0  0  0
 43 44  1  0  0  0  0
 43 47  1  0  0  0  0
 43 48  1  0  0  0  0
 44 45  1  0  0  0  0
 44 46  1  0  0  0  0
 50 51  1  0  0  0  0
 55 56  1  0  0  0  0
 56 57  1  0  0  0  0
 56 61  1  0  0  0  0
 57 58  1  0  0  0  0
 58 59  1  0  0  0  0
 58 71  1  0  0  0  0
 59 60  1  0  0  0  0
 60 61  1  0  0  0  0
 63 64  1  0  0  0  0
 64 65  1  0  0  0  0
 67 68  4  0  0  0  0
 67 72  4  0  0  0  0
 68 69  4  0  0  0  0
 69 70  4  0  0  0  0
 70 71  4  0  0  0  0
 71 72  4  0  0  0  0
M  END
$$$$
