mol_ETKDG3_84
  PyMOL3.1          3D                             0

 73 79  0  0  0  0  0  0  0  0999 V2000
   -0.1562   16.6910  -11.0345 C   0  0  0  0  0  0  0  0  0  0  0  0
   -0.1139   15.2431  -11.4973 C   0  0  0  0  0  0  0  0  0  0  0  0
   -0.2767   15.0748  -12.8777 O   0  0  0  0  0  0  0  0  0  0  0  0
   -1.5725   14.7377  -13.3370 C   0  0  0  0  0  0  0  0  0  0  0  0
    1.1547   14.5879  -11.1304 C   0  0  0  0  0  0  0  0  0  0  0  0
    2.2908   15.1891  -11.4518 N   0  0  0  0  0  0  0  0  0  0  0  0
    3.4749   14.6076  -11.1815 C   0  0  0  0  0  0  0  0  0  0  0  0
    3.5313   13.3678  -10.5356 C   0  0  0  0  0  0  0  0  0  0  0  0
    2.3567   12.7570  -10.1983 C   0  0  0  0  0  0  0  0  0  0  0  0
    1.1733   13.3628  -10.5039 C   0  0  0  0  0  0  0  0  0  0  0  0
   -0.0572   12.7259  -10.1284 C   0  0  0  0  0  0  0  0  0  0  0  0
   -0.6936   11.7815  -10.8766 N   0  0  0  0  0  0  0  0  0  0  0  0
   -0.2680   11.2132  -12.1620 C   0  0  0  0  0  0  0  0  0  0  0  0
    0.3286    9.8235  -11.9470 C   0  0  0  0  0  0  0  0  0  0  0  0
   -0.8162   13.0144   -9.0065 C   0  0  0  0  0  0  0  0  0  0  0  0
   -0.5973   13.9948   -7.8842 C   0  0  0  0  0  0  0  0  0  0  0  0
    0.1420   13.4372   -6.6296 C   0  0  0  0  0  0  0  0  0  0  0  0
   -0.4073   14.1553   -5.3912 C   0  0  0  0  0  0  0  0  0  0  0  0
    1.6539   13.7509   -6.7317 C   0  0  0  0  0  0  0  0  0  0  0  0
    0.0532   12.0146   -6.4525 C   0  0  0  0  0  0  0  0  0  0  0  0
   -0.6018   11.4862   -5.2616 O   0  0  0  0  0  0  0  0  0  0  0  0
   -0.8983   10.1172   -5.1043 C   0  0  0  0  0  0  0  0  0  0  0  0
   -1.6242    9.7968   -3.8380 C   0  0  0  0  0  0  0  0  0  0  0  0
   -2.3194    8.5248   -4.0201 N   0  0  0  0  0  0  0  0  0  0  0  0
   -3.0002    8.0909   -2.9002 N   0  0  0  0  0  0  0  0  0  0  0  0
   -4.3613    7.9819   -2.9058 C   0  0  0  0  0  0  0  0  0  0  0  0
   -5.0648    8.2972   -4.2031 C   0  0  0  0  0  0  0  0  0  0  0  0
   -6.2505    7.4865   -4.3952 N   0  0  0  0  0  0  0  0  0  0  0  0
   -6.3390    6.5112   -5.3070 C   0  0  0  0  0  0  0  0  0  0  0  0
   -7.7126    5.9416   -5.4450 C   0  0  0  0  0  0  0  0  0  0  0  0
   -7.8019    4.4247   -5.1077 C   0  0  0  0  0  0  0  0  0  0  0  0
   -9.2145    3.9070   -5.3816 C   0  0  0  0  0  0  0  0  0  0  0  0
   -7.4557    4.2055   -3.6272 C   0  0  0  0  0  0  0  0  0  0  0  0
   -8.1969    6.2508   -6.7714 N   0  0  0  0  0  0  0  0  0  0  0  0
   -9.0577    7.3010   -6.8860 C   0  0  0  0  0  0  0  0  0  0  0  0
   -9.8052    7.5280   -8.1774 C   0  0  0  0  0  0  0  0  0  0  0  0
  -10.8037    8.6788   -8.0343 C   0  0  0  0  0  0  0  0  0  0  0  0
  -11.6618    8.7688   -9.2322 C   0  0  0  0  0  0  0  0  0  0  0  0
  -12.2605    7.4504   -9.5077 N   0  0  0  0  0  0  0  0  0  0  0  0
  -13.5918    7.1764   -9.4802 C   0  0  0  0  0  0  0  0  0  0  0  0
  -14.4897    8.0799   -8.9278 C   0  0  0  0  0  0  0  0  0  0  0  0
  -15.3476    8.6764   -8.4945 C   0  0  0  0  0  0  0  0  0  0  0  0
  -16.3250    9.4995   -7.8216 C   0  0  0  0  0  0  0  0  0  0  0  0
  -16.9155    8.7216   -6.7019 N   0  0  0  0  0  0  0  0  0  0  0  0
  -15.9498    8.4609   -5.6082 C   0  0  0  0  0  0  0  0  0  0  0  0
  -17.5929    7.4743   -7.1435 C   0  0  0  0  0  0  0  0  0  0  0  0
  -15.6453   10.7846   -7.2993 C   0  0  0  0  0  0  0  0  0  0  0  0
  -17.4053    9.8708   -8.8432 C   0  0  0  0  0  0  0  0  0  0  0  0
  -14.0115    6.1015   -9.8936 O   0  0  0  0  0  0  0  0  0  0  0  0
  -11.3640    6.3694   -9.7137 C   0  0  0  0  0  0  0  0  0  0  0  0
  -10.5870    6.2496   -8.4431 C   0  0  0  0  0  0  0  0  0  0  0  0
   -9.2695    8.0481   -5.9225 O   0  0  0  0  0  0  0  0  0  0  0  0
   -7.6891    5.4202   -7.9009 C   0  0  0  0  0  0  0  0  0  0  0  0
   -5.3925    6.1688   -6.0033 O   0  0  0  0  0  0  0  0  0  0  0  0
   -5.4966    9.7875   -4.1684 C   0  0  0  0  0  0  0  0  0  0  0  0
   -5.9494   10.2480   -5.5444 C   0  0  0  0  0  0  0  0  0  0  0  0
   -4.7213   10.5159   -6.3848 C   0  0  0  0  0  0  0  0  0  0  0  0
   -5.1218   11.0983   -7.6892 N   0  0  0  0  0  0  0  0  0  0  0  0
   -5.9982   12.3267   -7.4686 C   0  0  0  0  0  0  0  0  0  0  0  0
   -7.2008   11.9536   -6.6617 C   0  0  0  0  0  0  0  0  0  0  0  0
   -6.7527   11.4099   -5.3930 O   0  0  0  0  0  0  0  0  0  0  0  0
   -5.0081    7.7262   -1.9150 O   0  0  0  0  0  0  0  0  0  0  0  0
   -2.1758    7.8740   -1.7183 C   0  0  0  0  0  0  0  0  0  0  0  0
   -1.4177    9.1973   -1.4124 C   0  0  0  0  0  0  0  0  0  0  0  0
   -0.6671    9.6714   -2.6512 C   0  0  0  0  0  0  0  0  0  0  0  0
   -0.6434    9.1672   -5.8901 O   0  0  0  0  0  0  0  0  0  0  0  0
   -1.9142   12.1906   -9.0960 C   0  0  0  0  0  0  0  0  0  0  0  0
   -1.8140   11.4254  -10.2507 C   0  0  0  0  0  0  0  0  0  0  0  0
   -2.8484   10.4892  -10.5559 C   0  0  0  0  0  0  0  0  0  0  0  0
   -3.9175   10.3873   -9.6851 C   0  0  0  0  0  0  0  0  0  0  0  0
   -4.0052   11.2065   -8.5338 C   0  0  0  0  0  0  0  0  0  0  0  0
   -2.9718   12.0899   -8.2508 C   0  0  0  0  0  0  0  0  0  0  0  0
   -8.8995    7.8067   -9.1972 F   0  0  0  0  0  0  0  0  0  0  0  0
  1  2  1  0  0  0  0
  2  3  1  0  0  0  0
  2  5  1  0  0  0  0
  3  4  1  0  0  0  0
  5  6  4  0  0  0  0
  5 10  4  0  0  0  0
  6  7  4  0  0  0  0
  7  8  4  0  0  0  0
  8  9  4  0  0  0  0
  9 10  4  0  0  0  0
 10 11  1  0  0  0  0
 11 12  4  0  0  0  0
 11 15  4  0  0  0  0
 12 13  1  0  0  0  0
 12 68  4  0  0  0  0
 13 14  1  0  0  0  0
 15 16  1  0  0  0  0
 15 67  4  0  0  0  0
 16 17  1  0  0  0  0
 17 18  1  0  0  0  0
 17 19  1  0  0  0  0
 17 20  1  0  0  0  0
 20 21  1  0  0  0  0
 21 22  1  0  0  0  0
 22 23  1  0  0  0  0
 22 66  2  0  0  0  0
 23 24  1  0  0  0  0
 23 65  1  0  0  0  0
 24 25  1  0  0  0  0
 25 26  1  0  0  0  0
 25 63  1  0  0  0  0
 26 27  1  0  0  0  0
 26 62  2  0  0  0  0
 27 28  1  0  0  0  0
 27 55  1  0  0  0  0
 28 29  1  0  0  0  0
 29 30  1  0  0  0  0
 29 54  2  0  0  0  0
 30 31  1  0  0  0  0
 30 34  1  0  0  0  0
 31 32  1  0  0  0  0
 31 33  1  0  0  0  0
 34 35  1  0  0  0  0
 34 53  1  0  0  0  0
 35 36  1  0  0  0  0
 35 52  2  0  0  0  0
 36 37  1  0  0  0  0
 36 51  1  0  0  0  0
 36 73  1  0  0  0  0
 37 38  1  0  0  0  0
 38 39  1  0  0  0  0
 39 40  1  0  0  0  0
 39 50  1  0  0  0  0
 40 41  1  0  0  0  0
 40 49  2  0  0  0  0
 41 42  1  0  0  0  0
 42 43  1  0  0  0  0
 43 44  1  0  0  0  0
 43 47  1  0  0  0  0
 43 48  1  0  0  0  0
 44 45  1  0  0  0  0
 44 46  1  0  0  0  0
 50 51  1  0  0  0  0
 55 56  1  0  0  0  0
 56 57  1  0  0  0  0
 56 61  1  0  0  0  0
 57 58  1  0  0  0  0
 58 59  1  0  0  0  0
 58 71  1  0  0  0  0
 59 60  1  0  0  0  0
 60 61  1  0  0  0  0
 63 64  1  0  0  0  0
 64 65  1  0  0  0  0
 67 68  4  0  0  0  0
 67 72  4  0  0  0  0
 68 69  4  0  0  0  0
 69 70  4  0  0  0  0
 70 71  4  0  0  0  0
 71 72  4  0  0  0  0
M  END
$$$$
