mol_bioactive_19
  PyMOL3.1          3D                             0

 73 79  0  0  0  0  0  0  0  0999 V2000
    0.0566   15.3420  -12.8377 C   0  0  0  0  0  0  0  0  0  0  0  0
   -0.0035   15.0515  -11.3560 C   0  0  0  0  0  0  0  0  0  0  0  0
   -0.2306   16.1655  -10.5617 O   0  0  0  0  0  0  0  0  0  0  0  0
   -1.5689   16.5945  -10.3762 C   0  0  0  0  0  0  0  0  0  0  0  0
    1.2405   14.4314  -10.8738 C   0  0  0  0  0  0  0  0  0  0  0  0
    2.3903   15.0107  -11.1899 N   0  0  0  0  0  0  0  0  0  0  0  0
    3.5505   14.4793  -10.7709 C   0  0  0  0  0  0  0  0  0  0  0  0
    3.5698   13.3007  -10.0215 C   0  0  0  0  0  0  0  0  0  0  0  0
    2.3900   12.7020   -9.7114 C   0  0  0  0  0  0  0  0  0  0  0  0
    1.2216   13.2673  -10.1355 C   0  0  0  0  0  0  0  0  0  0  0  0
   -0.0335   12.6627   -9.7726 C   0  0  0  0  0  0  0  0  0  0  0  0
   -0.6535   11.7051  -10.5067 N   0  0  0  0  0  0  0  0  0  0  0  0
   -0.1877   11.0905  -11.7570 C   0  0  0  0  0  0  0  0  0  0  0  0
    0.3896    9.7012  -11.4925 C   0  0  0  0  0  0  0  0  0  0  0  0
   -0.8214   12.9902   -8.6923 C   0  0  0  0  0  0  0  0  0  0  0  0
   -0.5978   13.9827   -7.6160 C   0  0  0  0  0  0  0  0  0  0  0  0
    0.0924   13.4349   -6.3408 C   0  0  0  0  0  0  0  0  0  0  0  0
   -0.5647   14.0898   -5.1293 C   0  0  0  0  0  0  0  0  0  0  0  0
    1.5872   13.8022   -6.3460 C   0  0  0  0  0  0  0  0  0  0  0  0
    0.0564   12.0086   -6.2182 C   0  0  0  0  0  0  0  0  0  0  0  0
   -0.6508   11.4240   -5.0959 O   0  0  0  0  0  0  0  0  0  0  0  0
   -0.9219   10.0557   -4.9943 C   0  0  0  0  0  0  0  0  0  0  0  0
   -1.6571    9.7049   -3.7435 C   0  0  0  0  0  0  0  0  0  0  0  0
   -2.3669    8.4590   -3.9632 N   0  0  0  0  0  0  0  0  0  0  0  0
   -3.0520    8.0134   -2.8621 N   0  0  0  0  0  0  0  0  0  0  0  0
   -4.4134    7.9392   -2.8607 C   0  0  0  0  0  0  0  0  0  0  0  0
   -5.1327    8.3488   -4.1160 C   0  0  0  0  0  0  0  0  0  0  0  0
   -6.3120    7.5354   -4.3669 N   0  0  0  0  0  0  0  0  0  0  0  0
   -6.3503    6.5048   -5.2184 C   0  0  0  0  0  0  0  0  0  0  0  0
   -7.7024    5.9066   -5.3874 C   0  0  0  0  0  0  0  0  0  0  0  0
   -7.8010    4.3991   -5.0034 C   0  0  0  0  0  0  0  0  0  0  0  0
   -9.2100    3.8769   -5.2796 C   0  0  0  0  0  0  0  0  0  0  0  0
   -7.4789    4.2043   -3.5178 C   0  0  0  0  0  0  0  0  0  0  0  0
   -8.1339    6.1157   -6.7329 N   0  0  0  0  0  0  0  0  0  0  0  0
   -9.1359    6.9981   -6.9370 C   0  0  0  0  0  0  0  0  0  0  0  0
   -9.7924    7.1129   -8.2819 C   0  0  0  0  0  0  0  0  0  0  0  0
  -11.1559    7.7688   -8.1326 C   0  0  0  0  0  0  0  0  0  0  0  0
  -11.9387    7.6699   -9.3939 C   0  0  0  0  0  0  0  0  0  0  0  0
  -11.9348    6.2779   -9.8347 N   0  0  0  0  0  0  0  0  0  0  0  0
  -12.9856    5.4190   -9.8166 C   0  0  0  0  0  0  0  0  0  0  0  0
  -14.1433    5.8395   -9.1947 C   0  0  0  0  0  0  0  0  0  0  0  0
  -15.1065    6.1267   -8.6958 C   0  0  0  0  0  0  0  0  0  0  0  0
  -16.2591    6.5817   -7.9621 C   0  0  0  0  0  0  0  0  0  0  0  0
  -15.8035    7.4296   -6.8320 N   0  0  0  0  0  0  0  0  0  0  0  0
  -14.8412    6.7557   -5.9341 C   0  0  0  0  0  0  0  0  0  0  0  0
  -15.3122    8.7574   -7.2299 C   0  0  0  0  0  0  0  0  0  0  0  0
  -17.0149    5.3795   -7.4032 C   0  0  0  0  0  0  0  0  0  0  0  0
  -17.1461    7.3911   -8.9082 C   0  0  0  0  0  0  0  0  0  0  0  0
  -12.9057    4.2941  -10.2919 O   0  0  0  0  0  0  0  0  0  0  0  0
  -10.6836    5.7178  -10.1193 C   0  0  0  0  0  0  0  0  0  0  0  0
  -10.0299    5.7093   -8.7847 C   0  0  0  0  0  0  0  0  0  0  0  0
   -9.5373    7.7168   -6.0091 O   0  0  0  0  0  0  0  0  0  0  0  0
   -7.4271    5.3492   -7.7901 C   0  0  0  0  0  0  0  0  0  0  0  0
   -5.3678    6.1388   -5.8483 O   0  0  0  0  0  0  0  0  0  0  0  0
   -5.5354    9.8312   -3.9228 C   0  0  0  0  0  0  0  0  0  0  0  0
   -5.6195   10.7014   -5.1321 C   0  0  0  0  0  0  0  0  0  0  0  0
   -5.1002   10.1293   -6.4400 C   0  0  0  0  0  0  0  0  0  0  0  0
   -5.2580   11.1039   -7.5123 N   0  0  0  0  0  0  0  0  0  0  0  0
   -6.0131   12.3701   -7.1575 C   0  0  0  0  0  0  0  0  0  0  0  0
   -7.1454   12.1265   -6.2855 C   0  0  0  0  0  0  0  0  0  0  0  0
   -6.9712   11.0913   -5.3216 O   0  0  0  0  0  0  0  0  0  0  0  0
   -5.0523    7.6548   -1.8727 O   0  0  0  0  0  0  0  0  0  0  0  0
   -2.2307    7.7689   -1.6766 C   0  0  0  0  0  0  0  0  0  0  0  0
   -1.4509    9.0653   -1.3491 C   0  0  0  0  0  0  0  0  0  0  0  0
   -0.7008    9.5496   -2.5583 C   0  0  0  0  0  0  0  0  0  0  0  0
   -0.6413    9.1352   -5.8040 O   0  0  0  0  0  0  0  0  0  0  0  0
   -1.9275   12.1751   -8.7928 C   0  0  0  0  0  0  0  0  0  0  0  0
   -1.7942   11.3808   -9.9125 C   0  0  0  0  0  0  0  0  0  0  0  0
   -2.8182   10.4421  -10.2254 C   0  0  0  0  0  0  0  0  0  0  0  0
   -3.9251   10.3576   -9.3855 C   0  0  0  0  0  0  0  0  0  0  0  0
   -4.0562   11.2018   -8.2785 C   0  0  0  0  0  0  0  0  0  0  0  0
   -3.0045   12.0988   -7.9877 C   0  0  0  0  0  0  0  0  0  0  0  0
   -8.9666    7.8216   -9.1369 F   0  0  0  0  0  0  0  0  0  0  0  0
  1  2  1  0  0  0  0
  2  3  1  0  0  0  0
  2  5  1  0  0  0  0
  3  4  1  0  0  0  0
  5  6  4  0  0  0  0
  5 10  4  0  0  0  0
  6  7  4  0  0  0  0
  7  8  4  0  0  0  0
  8  9  4  0  0  0  0
  9 10  4  0  0  0  0
 10 11  1  0  0  0  0
 11 12  4  0  0  0  0
 11 15  4  0  0  0  0
 12 13  1  0  0  0  0
 12 68  4  0  0  0  0
 13 14  1  0  0  0  0
 15 16  1  0  0  0  0
 15 67  4  0  0  0  0
 16 17  1  0  0  0  0
 17 18  1  0  0  0  0
 17 19  1  0  0  0  0
 17 20  1  0  0  0  0
 20 21  1  0  0  0  0
 21 22  1  0  0  0  0
 22 23  1  0  0  0  0
 22 66  2  0  0  0  0
 23 24  1  0  0  0  0
 23 65  1  0  0  0  0
 24 25  1  0  0  0  0
 25 26  1  0  0  0  0
 25 63  1  0  0  0  0
 26 27  1  0  0  0  0
 26 62  2  0  0  0  0
 27 28  1  0  0  0  0
 27 55  1  0  0  0  0
 28 29  1  0  0  0  0
 29 30  1  0  0  0  0
 29 54  2  0  0  0  0
 30 31  1  0  0  0  0
 30 34  1  0  0  0  0
 31 32  1  0  0  0  0
 31 33  1  0  0  0  0
 34 35  1  0  0  0  0
 34 53  1  0  0  0  0
 35 36  1  0  0  0  0
 35 52  2  0  0  0  0
 36 37  1  0  0  0  0
 36 51  1  0  0  0  0
 36 73  1  0  0  0  0
 37 38  1  0  0  0  0
 38 39  1  0  0  0  0
 39 40  1  0  0  0  0
 39 50  1  0  0  0  0
 40 41  1  0  0  0  0
 40 49  2  0  0  0  0
 41 42  1  0  0  0  0
 42 43  1  0  0  0  0
 43 44  1  0  0  0  0
 43 47  1  0  0  0  0
 43 48  1  0  0  0  0
 44 45  1  0  0  0  0
 44 46  1  0  0  0  0
 50 51  1  0  0  0  0
 55 56  1  0  0  0  0
 56 57  1  0  0  0  0
 56 61  1  0  0  0  0
 57 58  1  0  0  0  0
 58 59  1  0  0  0  0
 58 71  1  0  0  0  0
 59 60  1  0  0  0  0
 60 61  1  0  0  0  0
 63 64  1  0  0  0  0
 64 65  1  0  0  0  0
 67 68  4  0  0  0  0
 67 72  4  0  0  0  0
 68 69  4  0  0  0  0
 69 70  4  0  0  0  0
 70 71  4  0  0  0  0
 71 72  4  0  0  0  0
M  END
$$$$
