mol_ETKDG3_89
  PyMOL3.1          3D                             0

 73 79  0  0  0  0  0  0  0  0999 V2000
   -0.9626   15.8369  -11.8692 C   0  0  0  0  0  0  0  0  0  0  0  0
   -0.7318   14.3853  -12.2472 C   0  0  0  0  0  0  0  0  0  0  0  0
   -0.7262   14.1309  -13.6224 O   0  0  0  0  0  0  0  0  0  0  0  0
   -1.9565   13.7927  -14.2341 C   0  0  0  0  0  0  0  0  0  0  0  0
    0.5379   13.8767  -11.6899 C   0  0  0  0  0  0  0  0  0  0  0  0
    1.6725   14.4028  -12.1133 N   0  0  0  0  0  0  0  0  0  0  0  0
    2.8509   13.9502  -11.6486 C   0  0  0  0  0  0  0  0  0  0  0  0
    2.9021   12.9293  -10.6955 C   0  0  0  0  0  0  0  0  0  0  0  0
    1.7305   12.3961  -10.2603 C   0  0  0  0  0  0  0  0  0  0  0  0
    0.5578   12.8638  -10.7649 C   0  0  0  0  0  0  0  0  0  0  0  0
   -0.6656   12.3048  -10.2876 C   0  0  0  0  0  0  0  0  0  0  0  0
   -1.3560   11.3263  -10.9299 N   0  0  0  0  0  0  0  0  0  0  0  0
   -1.0040   10.6337  -12.1739 C   0  0  0  0  0  0  0  0  0  0  0  0
   -0.3196    9.3046  -11.8625 C   0  0  0  0  0  0  0  0  0  0  0  0
   -1.3532   12.7167   -9.1645 C   0  0  0  0  0  0  0  0  0  0  0  0
   -1.0401   13.7846   -8.1534 C   0  0  0  0  0  0  0  0  0  0  0  0
   -0.3648   13.3060   -6.8291 C   0  0  0  0  0  0  0  0  0  0  0  0
   -1.0555   14.0185   -5.6644 C   0  0  0  0  0  0  0  0  0  0  0  0
    1.1263   13.7148   -6.8258 C   0  0  0  0  0  0  0  0  0  0  0  0
   -0.3731   11.9038   -6.6169 C   0  0  0  0  0  0  0  0  0  0  0  0
   -0.9566   11.3835   -5.3850 O   0  0  0  0  0  0  0  0  0  0  0  0
   -1.0952   10.0110   -5.1375 C   0  0  0  0  0  0  0  0  0  0  0  0
   -1.7844    9.7128   -3.8535 C   0  0  0  0  0  0  0  0  0  0  0  0
   -2.4897    8.4521   -4.0103 N   0  0  0  0  0  0  0  0  0  0  0  0
   -3.1434    8.0364   -2.8786 N   0  0  0  0  0  0  0  0  0  0  0  0
   -4.4985    7.9439   -2.8493 C   0  0  0  0  0  0  0  0  0  0  0  0
   -5.2305    8.2743   -4.1207 C   0  0  0  0  0  0  0  0  0  0  0  0
   -6.3994    7.4443   -4.3194 N   0  0  0  0  0  0  0  0  0  0  0  0
   -6.4859    6.4937   -5.2500 C   0  0  0  0  0  0  0  0  0  0  0  0
   -7.8564    5.9297   -5.4184 C   0  0  0  0  0  0  0  0  0  0  0  0
   -7.9681    4.4212   -5.0628 C   0  0  0  0  0  0  0  0  0  0  0  0
   -9.3940    3.9373   -5.2974 C   0  0  0  0  0  0  0  0  0  0  0  0
   -7.5858    4.2025   -3.5942 C   0  0  0  0  0  0  0  0  0  0  0  0
   -8.2734    6.1835   -6.7769 N   0  0  0  0  0  0  0  0  0  0  0  0
   -9.1174    7.2303   -6.9992 C   0  0  0  0  0  0  0  0  0  0  0  0
   -9.7336    7.3617   -8.3646 C   0  0  0  0  0  0  0  0  0  0  0  0
  -10.5354    8.6214   -8.6214 C   0  0  0  0  0  0  0  0  0  0  0  0
  -11.0760    8.5429  -10.0009 C   0  0  0  0  0  0  0  0  0  0  0  0
  -11.8055    7.2731  -10.1887 N   0  0  0  0  0  0  0  0  0  0  0  0
  -13.0465    7.1917  -10.6617 C   0  0  0  0  0  0  0  0  0  0  0  0
  -13.6617    8.3364  -11.0895 C   0  0  0  0  0  0  0  0  0  0  0  0
  -14.2920    9.1822  -11.4870 C   0  0  0  0  0  0  0  0  0  0  0  0
  -15.0011   10.3447  -11.8734 C   0  0  0  0  0  0  0  0  0  0  0  0
  -16.2304   10.4286  -11.0867 N   0  0  0  0  0  0  0  0  0  0  0  0
  -16.0871   10.1178   -9.6652 C   0  0  0  0  0  0  0  0  0  0  0  0
  -17.1085   11.5274  -11.3647 C   0  0  0  0  0  0  0  0  0  0  0  0
  -14.1111   11.6016  -11.6463 C   0  0  0  0  0  0  0  0  0  0  0  0
  -15.3185   10.1937  -13.3650 C   0  0  0  0  0  0  0  0  0  0  0  0
  -13.6214    6.1186  -10.7192 O   0  0  0  0  0  0  0  0  0  0  0  0
  -11.1617    6.0487   -9.8547 C   0  0  0  0  0  0  0  0  0  0  0  0
  -10.6605    6.1775   -8.4884 C   0  0  0  0  0  0  0  0  0  0  0  0
   -9.4162    8.0150   -6.0959 O   0  0  0  0  0  0  0  0  0  0  0  0
   -7.7130    5.2944   -7.8319 C   0  0  0  0  0  0  0  0  0  0  0  0
   -5.5292    6.1599   -5.9377 O   0  0  0  0  0  0  0  0  0  0  0  0
   -5.6994    9.7494   -4.0208 C   0  0  0  0  0  0  0  0  0  0  0  0
   -6.2615   10.2214   -5.3375 C   0  0  0  0  0  0  0  0  0  0  0  0
   -5.1080   10.4969   -6.2486 C   0  0  0  0  0  0  0  0  0  0  0  0
   -5.6041   11.0220   -7.5300 N   0  0  0  0  0  0  0  0  0  0  0  0
   -6.4585   12.2594   -7.2956 C   0  0  0  0  0  0  0  0  0  0  0  0
   -7.5974   11.9126   -6.3857 C   0  0  0  0  0  0  0  0  0  0  0  0
   -7.0609   11.3890   -5.1461 O   0  0  0  0  0  0  0  0  0  0  0  0
   -5.1193    7.6921   -1.8432 O   0  0  0  0  0  0  0  0  0  0  0  0
   -2.2890    7.8127   -1.7225 C   0  0  0  0  0  0  0  0  0  0  0  0
   -1.5182    9.1338   -1.4359 C   0  0  0  0  0  0  0  0  0  0  0  0
   -0.7998    9.5938   -2.6917 C   0  0  0  0  0  0  0  0  0  0  0  0
   -0.7374    9.0372   -5.8534 O   0  0  0  0  0  0  0  0  0  0  0  0
   -2.4775   11.9290   -9.1438 C   0  0  0  0  0  0  0  0  0  0  0  0
   -2.4543   11.0691  -10.2364 C   0  0  0  0  0  0  0  0  0  0  0  0
   -3.5234   10.1464  -10.4265 C   0  0  0  0  0  0  0  0  0  0  0  0
   -4.5468   10.1425   -9.5082 C   0  0  0  0  0  0  0  0  0  0  0  0
   -4.5490   11.0492   -8.4317 C   0  0  0  0  0  0  0  0  0  0  0  0
   -3.4885   11.9251   -8.2554 C   0  0  0  0  0  0  0  0  0  0  0  0
   -8.7233    7.3514   -9.3152 F   0  0  0  0  0  0  0  0  0  0  0  0
  1  2  1  0  0  0  0
  2  3  1  0  0  0  0
  2  5  1  0  0  0  0
  3  4  1  0  0  0  0
  5  6  4  0  0  0  0
  5 10  4  0  0  0  0
  6  7  4  0  0  0  0
  7  8  4  0  0  0  0
  8  9  4  0  0  0  0
  9 10  4  0  0  0  0
 10 11  1  0  0  0  0
 11 12  4  0  0  0  0
 11 15  4  0  0  0  0
 12 13  1  0  0  0  0
 12 68  4  0  0  0  0
 13 14  1  0  0  0  0
 15 16  1  0  0  0  0
 15 67  4  0  0  0  0
 16 17  1  0  0  0  0
 17 18  1  0  0  0  0
 17 19  1  0  0  0  0
 17 20  1  0  0  0  0
 20 21  1  0  0  0  0
 21 22  1  0  0  0  0
 22 23  1  0  0  0  0
 22 66  2  0  0  0  0
 23 24  1  0  0  0  0
 23 65  1  0  0  0  0
 24 25  1  0  0  0  0
 25 26  1  0  0  0  0
 25 63  1  0  0  0  0
 26 27  1  0  0  0  0
 26 62  2  0  0  0  0
 27 28  1  0  0  0  0
 27 55  1  0  0  0  0
 28 29  1  0  0  0  0
 29 30  1  0  0  0  0
 29 54  2  0  0  0  0
 30 31  1  0  0  0  0
 30 34  1  0  0  0  0
 31 32  1  0  0  0  0
 31 33  1  0  0  0  0
 34 35  1  0  0  0  0
 34 53  1  0  0  0  0
 35 36  1  0  0  0  0
 35 52  2  0  0  0  0
 36 37  1  0  0  0  0
 36 51  1  0  0  0  0
 36 73  1  0  0  0  0
 37 38  1  0  0  0  0
 38 39  1  0  0  0  0
 39 40  1  0  0  0  0
 39 50  1  0  0  0  0
 40 41  1  0  0  0  0
 40 49  2  0  0  0  0
 41 42  1  0  0  0  0
 42 43  1  0  0  0  0
 43 44  1  0  0  0  0
 43 47  1  0  0  0  0
 43 48  1  0  0  0  0
 44 45  1  0  0  0  0
 44 46  1  0  0  0  0
 50 51  1  0  0  0  0
 55 56  1  0  0  0  0
 56 57  1  0  0  0  0
 56 61  1  0  0  0  0
 57 58  1  0  0  0  0
 58 59  1  0  0  0  0
 58 71  1  0  0  0  0
 59 60  1  0  0  0  0
 60 61  1  0  0  0  0
 63 64  1  0  0  0  0
 64 65  1  0  0  0  0
 67 68  4  0  0  0  0
 67 72  4  0  0  0  0
 68 69  4  0  0  0  0
 69 70  4  0  0  0  0
 70 71  4  0  0  0  0
 71 72  4  0  0  0  0
M  END
$$$$
