mol_ETKDG3_96
  PyMOL3.1          3D                             0

 73 79  0  0  0  0  0  0  0  0999 V2000
   -0.1261   14.9732  -13.7305 C   0  0  0  0  0  0  0  0  0  0  0  0
   -0.3477   14.1123  -12.5050 C   0  0  0  0  0  0  0  0  0  0  0  0
   -1.1454   14.7881  -11.6079 O   0  0  0  0  0  0  0  0  0  0  0  0
   -2.5623   14.7062  -11.7966 C   0  0  0  0  0  0  0  0  0  0  0  0
    0.9373   13.7410  -11.8364 C   0  0  0  0  0  0  0  0  0  0  0  0
    2.0630   14.2796  -12.2709 N   0  0  0  0  0  0  0  0  0  0  0  0
    3.2426   13.9717  -11.7130 C   0  0  0  0  0  0  0  0  0  0  0  0
    3.3218   13.0543  -10.6710 C   0  0  0  0  0  0  0  0  0  0  0  0
    2.1714   12.4861  -10.2265 C   0  0  0  0  0  0  0  0  0  0  0  0
    0.9862   12.8328  -10.7912 C   0  0  0  0  0  0  0  0  0  0  0  0
   -0.2200   12.2435  -10.2933 C   0  0  0  0  0  0  0  0  0  0  0  0
   -0.8676   11.2286  -10.9255 N   0  0  0  0  0  0  0  0  0  0  0  0
   -0.4549   10.5046  -12.1376 C   0  0  0  0  0  0  0  0  0  0  0  0
    0.2456    9.2037  -11.7535 C   0  0  0  0  0  0  0  0  0  0  0  0
   -0.9459   12.6478   -9.1763 C   0  0  0  0  0  0  0  0  0  0  0  0
   -0.7002   13.7242   -8.1464 C   0  0  0  0  0  0  0  0  0  0  0  0
   -0.0120   13.2672   -6.8167 C   0  0  0  0  0  0  0  0  0  0  0  0
   -0.6621   14.0235   -5.6546 C   0  0  0  0  0  0  0  0  0  0  0  0
    1.4842   13.6472   -6.8631 C   0  0  0  0  0  0  0  0  0  0  0  0
   -0.0360   11.8681   -6.5517 C   0  0  0  0  0  0  0  0  0  0  0  0
   -0.6810   11.3709   -5.3250 O   0  0  0  0  0  0  0  0  0  0  0  0
   -0.9793   10.0065   -5.1296 C   0  0  0  0  0  0  0  0  0  0  0  0
   -1.6924    9.7123   -3.8485 C   0  0  0  0  0  0  0  0  0  0  0  0
   -2.3946    8.4402   -4.0076 N   0  0  0  0  0  0  0  0  0  0  0  0
   -3.0711    8.0211   -2.8840 N   0  0  0  0  0  0  0  0  0  0  0  0
   -4.4333    7.9253   -2.8768 C   0  0  0  0  0  0  0  0  0  0  0  0
   -5.1450    8.2303   -4.1705 C   0  0  0  0  0  0  0  0  0  0  0  0
   -6.3424    7.4333   -4.3582 N   0  0  0  0  0  0  0  0  0  0  0  0
   -6.4529    6.4697   -5.2817 C   0  0  0  0  0  0  0  0  0  0  0  0
   -7.8293    5.9082   -5.4179 C   0  0  0  0  0  0  0  0  0  0  0  0
   -7.9189    4.3962   -5.0496 C   0  0  0  0  0  0  0  0  0  0  0  0
   -9.3449    3.8989   -5.2481 C   0  0  0  0  0  0  0  0  0  0  0  0
   -7.5081    4.1954   -3.5842 C   0  0  0  0  0  0  0  0  0  0  0  0
   -8.3034    6.1458   -6.7657 N   0  0  0  0  0  0  0  0  0  0  0  0
   -9.2233    7.1345   -6.9535 C   0  0  0  0  0  0  0  0  0  0  0  0
   -9.9515    7.2249   -8.2773 C   0  0  0  0  0  0  0  0  0  0  0  0
  -10.9669    8.3616   -8.3308 C   0  0  0  0  0  0  0  0  0  0  0  0
  -11.7358    8.2886   -9.5976 C   0  0  0  0  0  0  0  0  0  0  0  0
  -12.2975    6.9319   -9.7746 N   0  0  0  0  0  0  0  0  0  0  0  0
  -13.6099    6.6457   -9.9475 C   0  0  0  0  0  0  0  0  0  0  0  0
  -14.5646    7.6535   -9.9432 C   0  0  0  0  0  0  0  0  0  0  0  0
  -15.4751    8.3485   -9.9757 C   0  0  0  0  0  0  0  0  0  0  0  0
  -16.5630    9.2784   -9.9520 C   0  0  0  0  0  0  0  0  0  0  0  0
  -16.6457    9.9296   -8.6344 N   0  0  0  0  0  0  0  0  0  0  0  0
  -16.6995    8.9753   -7.5130 C   0  0  0  0  0  0  0  0  0  0  0  0
  -15.6395   10.9868   -8.4265 C   0  0  0  0  0  0  0  0  0  0  0  0
  -17.8679    8.5155  -10.2296 C   0  0  0  0  0  0  0  0  0  0  0  0
  -16.3374   10.3168  -11.0535 C   0  0  0  0  0  0  0  0  0  0  0  0
  -13.9692    5.4858  -10.1015 O   0  0  0  0  0  0  0  0  0  0  0  0
  -11.3950    5.8367   -9.7180 C   0  0  0  0  0  0  0  0  0  0  0  0
  -10.7091    5.9166   -8.4131 C   0  0  0  0  0  0  0  0  0  0  0  0
   -9.5086    7.9143   -6.0375 O   0  0  0  0  0  0  0  0  0  0  0  0
   -7.7323    5.2946   -7.8448 C   0  0  0  0  0  0  0  0  0  0  0  0
   -5.5067    6.1247   -5.9773 O   0  0  0  0  0  0  0  0  0  0  0  0
   -5.5633    9.7197   -4.1274 C   0  0  0  0  0  0  0  0  0  0  0  0
   -6.0303   10.1807   -5.4832 C   0  0  0  0  0  0  0  0  0  0  0  0
   -4.8209   10.3808   -6.3547 C   0  0  0  0  0  0  0  0  0  0  0  0
   -5.2296   10.9307   -7.6510 N   0  0  0  0  0  0  0  0  0  0  0  0
   -6.0526   12.2132   -7.4394 C   0  0  0  0  0  0  0  0  0  0  0  0
   -7.2319   11.9207   -6.5883 C   0  0  0  0  0  0  0  0  0  0  0  0
   -6.7798   11.3803   -5.3280 O   0  0  0  0  0  0  0  0  0  0  0  0
   -5.0730    7.6937   -1.8787 O   0  0  0  0  0  0  0  0  0  0  0  0
   -2.2359    7.8117   -1.7120 C   0  0  0  0  0  0  0  0  0  0  0  0
   -1.4621    9.1313   -1.4237 C   0  0  0  0  0  0  0  0  0  0  0  0
   -0.7269    9.5968   -2.6713 C   0  0  0  0  0  0  0  0  0  0  0  0
   -0.7433    9.0378   -5.8987 O   0  0  0  0  0  0  0  0  0  0  0  0
   -2.0477   11.8334   -9.1748 C   0  0  0  0  0  0  0  0  0  0  0  0
   -1.9736   10.9576  -10.2521 C   0  0  0  0  0  0  0  0  0  0  0  0
   -3.0130   10.0118  -10.4560 C   0  0  0  0  0  0  0  0  0  0  0  0
   -4.0652   10.0059   -9.5687 C   0  0  0  0  0  0  0  0  0  0  0  0
   -4.1283   10.9388   -8.5093 C   0  0  0  0  0  0  0  0  0  0  0  0
   -3.0717   11.8215   -8.3202 C   0  0  0  0  0  0  0  0  0  0  0  0
   -9.0297    7.4052   -9.3020 F   0  0  0  0  0  0  0  0  0  0  0  0
  1  2  1  0  0  0  0
  2  3  1  0  0  0  0
  2  5  1  0  0  0  0
  3  4  1  0  0  0  0
  5  6  4  0  0  0  0
  5 10  4  0  0  0  0
  6  7  4  0  0  0  0
  7  8  4  0  0  0  0
  8  9  4  0  0  0  0
  9 10  4  0  0  0  0
 10 11  1  0  0  0  0
 11 12  4  0  0  0  0
 11 15  4  0  0  0  0
 12 13  1  0  0  0  0
 12 68  4  0  0  0  0
 13 14  1  0  0  0  0
 15 16  1  0  0  0  0
 15 67  4  0  0  0  0
 16 17  1  0  0  0  0
 17 18  1  0  0  0  0
 17 19  1  0  0  0  0
 17 20  1  0  0  0  0
 20 21  1  0  0  0  0
 21 22  1  0  0  0  0
 22 23  1  0  0  0  0
 22 66  2  0  0  0  0
 23 24  1  0  0  0  0
 23 65  1  0  0  0  0
 24 25  1  0  0  0  0
 25 26  1  0  0  0  0
 25 63  1  0  0  0  0
 26 27  1  0  0  0  0
 26 62  2  0  0  0  0
 27 28  1  0  0  0  0
 27 55  1  0  0  0  0
 28 29  1  0  0  0  0
 29 30  1  0  0  0  0
 29 54  2  0  0  0  0
 30 31  1  0  0  0  0
 30 34  1  0  0  0  0
 31 32  1  0  0  0  0
 31 33  1  0  0  0  0
 34 35  1  0  0  0  0
 34 53  1  0  0  0  0
 35 36  1  0  0  0  0
 35 52  2  0  0  0  0
 36 37  1  0  0  0  0
 36 51  1  0  0  0  0
 36 73  1  0  0  0  0
 37 38  1  0  0  0  0
 38 39  1  0  0  0  0
 39 40  1  0  0  0  0
 39 50  1  0  0  0  0
 40 41  1  0  0  0  0
 40 49  2  0  0  0  0
 41 42  1  0  0  0  0
 42 43  1  0  0  0  0
 43 44  1  0  0  0  0
 43 47  1  0  0  0  0
 43 48  1  0  0  0  0
 44 45  1  0  0  0  0
 44 46  1  0  0  0  0
 50 51  1  0  0  0  0
 55 56  1  0  0  0  0
 56 57  1  0  0  0  0
 56 61  1  0  0  0  0
 57 58  1  0  0  0  0
 58 59  1  0  0  0  0
 58 71  1  0  0  0  0
 59 60  1  0  0  0  0
 60 61  1  0  0  0  0
 63 64  1  0  0  0  0
 64 65  1  0  0  0  0
 67 68  4  0  0  0  0
 67 72  4  0  0  0  0
 68 69  4  0  0  0  0
 69 70  4  0  0  0  0
 70 71  4  0  0  0  0
 71 72  4  0  0  0  0
M  END
$$$$
