mol_bioactive_13
  PyMOL3.1          3D                             0

 73 79  0  0  0  0  0  0  0  0999 V2000
   -0.3151   15.0158  -13.4107 C   0  0  0  0  0  0  0  0  0  0  0  0
   -0.3293   14.6684  -11.9376 C   0  0  0  0  0  0  0  0  0  0  0  0
   -0.6363   15.7418  -11.1092 O   0  0  0  0  0  0  0  0  0  0  0  0
   -2.0040   16.0468  -10.8698 C   0  0  0  0  0  0  0  0  0  0  0  0
    0.9772   14.1532  -11.4735 C   0  0  0  0  0  0  0  0  0  0  0  0
    2.0833   14.7305  -11.9230 N   0  0  0  0  0  0  0  0  0  0  0  0
    3.2876   14.2940  -11.5182 C   0  0  0  0  0  0  0  0  0  0  0  0
    3.4014   13.2158  -10.6392 C   0  0  0  0  0  0  0  0  0  0  0  0
    2.2655   12.6168  -10.1839 C   0  0  0  0  0  0  0  0  0  0  0  0
    1.0533   13.0889  -10.5948 C   0  0  0  0  0  0  0  0  0  0  0  0
   -0.1546   12.4910  -10.0934 C   0  0  0  0  0  0  0  0  0  0  0  0
   -0.8181   11.5035  -10.7480 N   0  0  0  0  0  0  0  0  0  0  0  0
   -0.4296   10.8281  -11.9953 C   0  0  0  0  0  0  0  0  0  0  0  0
    0.2307    9.4818  -11.6860 C   0  0  0  0  0  0  0  0  0  0  0  0
   -0.8567   12.8611   -8.9605 C   0  0  0  0  0  0  0  0  0  0  0  0
   -0.5572   13.8781   -7.9093 C   0  0  0  0  0  0  0  0  0  0  0  0
    0.1882   13.3509   -6.6417 C   0  0  0  0  0  0  0  0  0  0  0  0
   -0.3621   14.0957   -5.4265 C   0  0  0  0  0  0  0  0  0  0  0  0
    1.6979   13.6566   -6.7577 C   0  0  0  0  0  0  0  0  0  0  0  0
    0.1029   11.9305   -6.4250 C   0  0  0  0  0  0  0  0  0  0  0  0
   -0.6044   11.4143   -5.2443 O   0  0  0  0  0  0  0  0  0  0  0  0
   -0.8897   10.0411   -5.0664 C   0  0  0  0  0  0  0  0  0  0  0  0
   -1.6316    9.7251   -3.8017 C   0  0  0  0  0  0  0  0  0  0  0  0
   -2.3620    8.4806   -4.0056 N   0  0  0  0  0  0  0  0  0  0  0  0
   -3.0527    8.0287   -2.8949 N   0  0  0  0  0  0  0  0  0  0  0  0
   -4.4178    7.9481   -2.8872 C   0  0  0  0  0  0  0  0  0  0  0  0
   -5.1439    8.3649   -4.1370 C   0  0  0  0  0  0  0  0  0  0  0  0
   -6.3358    7.5552   -4.3883 N   0  0  0  0  0  0  0  0  0  0  0  0
   -6.4062    6.5450   -5.2744 C   0  0  0  0  0  0  0  0  0  0  0  0
   -7.7671    5.9398   -5.3962 C   0  0  0  0  0  0  0  0  0  0  0  0
   -7.8270    4.4297   -5.0270 C   0  0  0  0  0  0  0  0  0  0  0  0
   -9.2448    3.8944   -5.2385 C   0  0  0  0  0  0  0  0  0  0  0  0
   -7.4345    4.2327   -3.5579 C   0  0  0  0  0  0  0  0  0  0  0  0
   -8.2941    6.1803   -6.7140 N   0  0  0  0  0  0  0  0  0  0  0  0
   -9.2139    7.1633   -6.8464 C   0  0  0  0  0  0  0  0  0  0  0  0
  -10.0351    7.2809   -8.1045 C   0  0  0  0  0  0  0  0  0  0  0  0
  -11.0084    8.4444   -7.9872 C   0  0  0  0  0  0  0  0  0  0  0  0
  -11.9881    8.4262   -9.1004 C   0  0  0  0  0  0  0  0  0  0  0  0
  -12.6210    7.1066   -9.1534 N   0  0  0  0  0  0  0  0  0  0  0  0
  -13.9372    6.8649   -8.8755 C   0  0  0  0  0  0  0  0  0  0  0  0
  -14.6798    7.8523   -8.2250 C   0  0  0  0  0  0  0  0  0  0  0  0
  -15.3801    8.5563   -7.6905 C   0  0  0  0  0  0  0  0  0  0  0  0
  -16.1137    9.5492   -6.9274 C   0  0  0  0  0  0  0  0  0  0  0  0
  -16.3278    9.0363   -5.5548 N   0  0  0  0  0  0  0  0  0  0  0  0
  -15.0746    8.9103   -4.7744 C   0  0  0  0  0  0  0  0  0  0  0  0
  -17.1097    7.7925   -5.5062 C   0  0  0  0  0  0  0  0  0  0  0  0
  -15.3148   10.8708   -6.8655 C   0  0  0  0  0  0  0  0  0  0  0  0
  -17.4483    9.7941   -7.6324 C   0  0  0  0  0  0  0  0  0  0  0  0
  -14.4512    5.7936   -9.1453 O   0  0  0  0  0  0  0  0  0  0  0  0
  -11.7520    5.9923   -9.3772 C   0  0  0  0  0  0  0  0  0  0  0  0
  -10.8288    5.9773   -8.1941 C   0  0  0  0  0  0  0  0  0  0  0  0
   -9.4281    7.9419   -5.9014 O   0  0  0  0  0  0  0  0  0  0  0  0
   -7.7940    5.3222   -7.8245 C   0  0  0  0  0  0  0  0  0  0  0  0
   -5.4510    6.1938   -5.9529 O   0  0  0  0  0  0  0  0  0  0  0  0
   -5.5340    9.8486   -3.9149 C   0  0  0  0  0  0  0  0  0  0  0  0
   -5.5653   10.7629   -5.0983 C   0  0  0  0  0  0  0  0  0  0  0  0
   -5.0732   10.1867   -6.4087 C   0  0  0  0  0  0  0  0  0  0  0  0
   -5.2515   11.1422   -7.4864 N   0  0  0  0  0  0  0  0  0  0  0  0
   -5.9265   12.4607   -7.0948 C   0  0  0  0  0  0  0  0  0  0  0  0
   -7.0531   12.2617   -6.2322 C   0  0  0  0  0  0  0  0  0  0  0  0
   -6.9019   11.2266   -5.2581 O   0  0  0  0  0  0  0  0  0  0  0  0
   -5.0511    7.6605   -1.8965 O   0  0  0  0  0  0  0  0  0  0  0  0
   -2.2281    7.7797   -1.7137 C   0  0  0  0  0  0  0  0  0  0  0  0
   -1.4468    9.0803   -1.3888 C   0  0  0  0  0  0  0  0  0  0  0  0
   -0.6869    9.5644   -2.6047 C   0  0  0  0  0  0  0  0  0  0  0  0
   -0.6144    9.0926   -5.8416 O   0  0  0  0  0  0  0  0  0  0  0  0
   -1.9700   12.0590   -8.9676 C   0  0  0  0  0  0  0  0  0  0  0  0
   -1.9170   11.2188  -10.0677 C   0  0  0  0  0  0  0  0  0  0  0  0
   -2.9666   10.2899  -10.2864 C   0  0  0  0  0  0  0  0  0  0  0  0
   -4.0246   10.2609   -9.3854 C   0  0  0  0  0  0  0  0  0  0  0  0
   -4.0845   11.1615   -8.3093 C   0  0  0  0  0  0  0  0  0  0  0  0
   -2.9909   12.0375   -8.1053 C   0  0  0  0  0  0  0  0  0  0  0  0
   -9.2164    7.4643   -9.2096 F   0  0  0  0  0  0  0  0  0  0  0  0
  1  2  1  0  0  0  0
  2  3  1  0  0  0  0
  2  5  1  0  0  0  0
  3  4  1  0  0  0  0
  5  6  4  0  0  0  0
  5 10  4  0  0  0  0
  6  7  4  0  0  0  0
  7  8  4  0  0  0  0
  8  9  4  0  0  0  0
  9 10  4  0  0  0  0
 10 11  1  0  0  0  0
 11 12  4  0  0  0  0
 11 15  4  0  0  0  0
 12 13  1  0  0  0  0
 12 68  4  0  0  0  0
 13 14  1  0  0  0  0
 15 16  1  0  0  0  0
 15 67  4  0  0  0  0
 16 17  1  0  0  0  0
 17 18  1  0  0  0  0
 17 19  1  0  0  0  0
 17 20  1  0  0  0  0
 20 21  1  0  0  0  0
 21 22  1  0  0  0  0
 22 23  1  0  0  0  0
 22 66  2  0  0  0  0
 23 24  1  0  0  0  0
 23 65  1  0  0  0  0
 24 25  1  0  0  0  0
 25 26  1  0  0  0  0
 25 63  1  0  0  0  0
 26 27  1  0  0  0  0
 26 62  2  0  0  0  0
 27 28  1  0  0  0  0
 27 55  1  0  0  0  0
 28 29  1  0  0  0  0
 29 30  1  0  0  0  0
 29 54  2  0  0  0  0
 30 31  1  0  0  0  0
 30 34  1  0  0  0  0
 31 32  1  0  0  0  0
 31 33  1  0  0  0  0
 34 35  1  0  0  0  0
 34 53  1  0  0  0  0
 35 36  1  0  0  0  0
 35 52  2  0  0  0  0
 36 37  1  0  0  0  0
 36 51  1  0  0  0  0
 36 73  1  0  0  0  0
 37 38  1  0  0  0  0
 38 39  1  0  0  0  0
 39 40  1  0  0  0  0
 39 50  1  0  0  0  0
 40 41  1  0  0  0  0
 40 49  2  0  0  0  0
 41 42  1  0  0  0  0
 42 43  1  0  0  0  0
 43 44  1  0  0  0  0
 43 47  1  0  0  0  0
 43 48  1  0  0  0  0
 44 45  1  0  0  0  0
 44 46  1  0  0  0  0
 50 51  1  0  0  0  0
 55 56  1  0  0  0  0
 56 57  1  0  0  0  0
 56 61  1  0  0  0  0
 57 58  1  0  0  0  0
 58 59  1  0  0  0  0
 58 71  1  0  0  0  0
 59 60  1  0  0  0  0
 60 61  1  0  0  0  0
 63 64  1  0  0  0  0
 64 65  1  0  0  0  0
 67 68  4  0  0  0  0
 67 72  4  0  0  0  0
 68 69  4  0  0  0  0
 69 70  4  0  0  0  0
 70 71  4  0  0  0  0
 71 72  4  0  0  0  0
M  END
$$$$
