mol_ETKDG5_132
  PyMOL3.1          3D                             0

 73 79  0  0  0  0  0  0  0  0999 V2000
    0.0972   16.8511  -11.4206 C   0  0  0  0  0  0  0  0  0  0  0  0
   -0.0968   15.4128  -10.9988 C   0  0  0  0  0  0  0  0  0  0  0  0
   -0.7158   14.6809  -12.0263 O   0  0  0  0  0  0  0  0  0  0  0  0
   -2.1352   14.7405  -12.0820 C   0  0  0  0  0  0  0  0  0  0  0  0
    1.1797   14.7329  -10.6772 C   0  0  0  0  0  0  0  0  0  0  0  0
    2.3150   15.3411  -10.9847 N   0  0  0  0  0  0  0  0  0  0  0  0
    3.4943   14.7537  -10.7410 C   0  0  0  0  0  0  0  0  0  0  0  0
    3.5626   13.5036  -10.1385 C   0  0  0  0  0  0  0  0  0  0  0  0
    2.4034   12.8765   -9.8175 C   0  0  0  0  0  0  0  0  0  0  0  0
    1.2089   13.4770  -10.1024 C   0  0  0  0  0  0  0  0  0  0  0  0
   -0.0261   12.8053   -9.7540 C   0  0  0  0  0  0  0  0  0  0  0  0
   -0.6044   11.8149  -10.4869 N   0  0  0  0  0  0  0  0  0  0  0  0
   -0.0905   11.1830  -11.6974 C   0  0  0  0  0  0  0  0  0  0  0  0
    0.5451    9.8320  -11.3257 C   0  0  0  0  0  0  0  0  0  0  0  0
   -0.8386   13.1117   -8.6758 C   0  0  0  0  0  0  0  0  0  0  0  0
   -0.6621   14.1005   -7.5881 C   0  0  0  0  0  0  0  0  0  0  0  0
    0.0691   13.5481   -6.3237 C   0  0  0  0  0  0  0  0  0  0  0  0
   -0.5428   14.2009   -5.0840 C   0  0  0  0  0  0  0  0  0  0  0  0
    1.5695   13.9297   -6.3784 C   0  0  0  0  0  0  0  0  0  0  0  0
    0.0504   12.1182   -6.1940 C   0  0  0  0  0  0  0  0  0  0  0  0
   -0.6386   11.5243   -5.0644 O   0  0  0  0  0  0  0  0  0  0  0  0
   -0.9432   10.1565   -4.9871 C   0  0  0  0  0  0  0  0  0  0  0  0
   -1.6691    9.7908   -3.7363 C   0  0  0  0  0  0  0  0  0  0  0  0
   -2.3464    8.5276   -3.9523 N   0  0  0  0  0  0  0  0  0  0  0  0
   -3.0288    8.0695   -2.8427 N   0  0  0  0  0  0  0  0  0  0  0  0
   -4.3867    7.9691   -2.8431 C   0  0  0  0  0  0  0  0  0  0  0  0
   -5.0917    8.2944   -4.1254 C   0  0  0  0  0  0  0  0  0  0  0  0
   -6.2682    7.4840   -4.3406 N   0  0  0  0  0  0  0  0  0  0  0  0
   -6.3322    6.5153   -5.2482 C   0  0  0  0  0  0  0  0  0  0  0  0
   -7.7068    5.9578   -5.4635 C   0  0  0  0  0  0  0  0  0  0  0  0
   -7.8462    4.4472   -5.1367 C   0  0  0  0  0  0  0  0  0  0  0  0
   -9.2414    3.9633   -5.4972 C   0  0  0  0  0  0  0  0  0  0  0  0
   -7.5777    4.2214   -3.6401 C   0  0  0  0  0  0  0  0  0  0  0  0
   -8.0561    6.2621   -6.8258 N   0  0  0  0  0  0  0  0  0  0  0  0
   -8.8794    7.3143   -7.0561 C   0  0  0  0  0  0  0  0  0  0  0  0
   -9.2842    7.6697   -8.4613 C   0  0  0  0  0  0  0  0  0  0  0  0
  -10.3850    8.7081   -8.5304 C   0  0  0  0  0  0  0  0  0  0  0  0
  -10.6761    9.0201   -9.9422 C   0  0  0  0  0  0  0  0  0  0  0  0
  -10.9043    7.7786  -10.6988 N   0  0  0  0  0  0  0  0  0  0  0  0
  -11.9806    7.5324  -11.4283 C   0  0  0  0  0  0  0  0  0  0  0  0
  -13.1430    8.2153  -11.1343 C   0  0  0  0  0  0  0  0  0  0  0  0
  -14.1449    8.7011  -10.9576 C   0  0  0  0  0  0  0  0  0  0  0  0
  -15.3980    9.3055  -10.5749 C   0  0  0  0  0  0  0  0  0  0  0  0
  -15.2041   10.1562   -9.3870 N   0  0  0  0  0  0  0  0  0  0  0  0
  -14.6450    9.4324   -8.2303 C   0  0  0  0  0  0  0  0  0  0  0  0
  -14.4734   11.4096   -9.6501 C   0  0  0  0  0  0  0  0  0  0  0  0
  -15.9153   10.1575  -11.7321 C   0  0  0  0  0  0  0  0  0  0  0  0
  -16.3924    8.1954  -10.2469 C   0  0  0  0  0  0  0  0  0  0  0  0
  -11.9643    6.6634  -12.2881 O   0  0  0  0  0  0  0  0  0  0  0  0
   -9.9478    6.7242  -10.6057 C   0  0  0  0  0  0  0  0  0  0  0  0
   -9.8047    6.4409   -9.1605 C   0  0  0  0  0  0  0  0  0  0  0  0
   -9.2791    8.0167   -6.1164 O   0  0  0  0  0  0  0  0  0  0  0  0
   -7.3886    5.4398   -7.8795 C   0  0  0  0  0  0  0  0  0  0  0  0
   -5.3604    6.1626   -5.9118 O   0  0  0  0  0  0  0  0  0  0  0  0
   -5.5485    9.7797   -4.0378 C   0  0  0  0  0  0  0  0  0  0  0  0
   -6.0110   10.2830   -5.3875 C   0  0  0  0  0  0  0  0  0  0  0  0
   -4.7748   10.5519   -6.2054 C   0  0  0  0  0  0  0  0  0  0  0  0
   -5.1446   11.1746   -7.4826 N   0  0  0  0  0  0  0  0  0  0  0  0
   -6.0140   12.4122   -7.2356 C   0  0  0  0  0  0  0  0  0  0  0  0
   -7.2236   12.0390   -6.4395 C   0  0  0  0  0  0  0  0  0  0  0  0
   -6.7951   11.4489   -5.1970 O   0  0  0  0  0  0  0  0  0  0  0  0
   -5.0269    7.7012   -1.8534 O   0  0  0  0  0  0  0  0  0  0  0  0
   -2.1986    7.8384   -1.6675 C   0  0  0  0  0  0  0  0  0  0  0  0
   -1.4492    9.1568   -1.3347 C   0  0  0  0  0  0  0  0  0  0  0  0
   -0.7084    9.6581   -2.5522 C   0  0  0  0  0  0  0  0  0  0  0  0
   -0.6998    9.2514   -5.8234 O   0  0  0  0  0  0  0  0  0  0  0  0
   -1.9102   12.2657   -8.7885 C   0  0  0  0  0  0  0  0  0  0  0  0
   -1.7407   11.4659   -9.9006 C   0  0  0  0  0  0  0  0  0  0  0  0
   -2.7364   10.4993  -10.2158 C   0  0  0  0  0  0  0  0  0  0  0  0
   -3.8406   10.4045   -9.3864 C   0  0  0  0  0  0  0  0  0  0  0  0
   -3.9987   11.2700   -8.2843 C   0  0  0  0  0  0  0  0  0  0  0  0
   -2.9780   12.1844   -7.9927 C   0  0  0  0  0  0  0  0  0  0  0  0
   -8.1452    8.1658   -9.0863 F   0  0  0  0  0  0  0  0  0  0  0  0
  1  2  1  0  0  0  0
  2  3  1  0  0  0  0
  2  5  1  0  0  0  0
  3  4  1  0  0  0  0
  5  6  4  0  0  0  0
  5 10  4  0  0  0  0
  6  7  4  0  0  0  0
  7  8  4  0  0  0  0
  8  9  4  0  0  0  0
  9 10  4  0  0  0  0
 10 11  1  0  0  0  0
 11 12  4  0  0  0  0
 11 15  4  0  0  0  0
 12 13  1  0  0  0  0
 12 68  4  0  0  0  0
 13 14  1  0  0  0  0
 15 16  1  0  0  0  0
 15 67  4  0  0  0  0
 16 17  1  0  0  0  0
 17 18  1  0  0  0  0
 17 19  1  0  0  0  0
 17 20  1  0  0  0  0
 20 21  1  0  0  0  0
 21 22  1  0  0  0  0
 22 23  1  0  0  0  0
 22 66  2  0  0  0  0
 23 24  1  0  0  0  0
 23 65  1  0  0  0  0
 24 25  1  0  0  0  0
 25 26  1  0  0  0  0
 25 63  1  0  0  0  0
 26 27  1  0  0  0  0
 26 62  2  0  0  0  0
 27 28  1  0  0  0  0
 27 55  1  0  0  0  0
 28 29  1  0  0  0  0
 29 30  1  0  0  0  0
 29 54  2  0  0  0  0
 30 31  1  0  0  0  0
 30 34  1  0  0  0  0
 31 32  1  0  0  0  0
 31 33  1  0  0  0  0
 34 35  1  0  0  0  0
 34 53  1  0  0  0  0
 35 36  1  0  0  0  0
 35 52  2  0  0  0  0
 36 37  1  0  0  0  0
 36 51  1  0  0  0  0
 36 73  1  0  0  0  0
 37 38  1  0  0  0  0
 38 39  1  0  0  0  0
 39 40  1  0  0  0  0
 39 50  1  0  0  0  0
 40 41  1  0  0  0  0
 40 49  2  0  0  0  0
 41 42  1  0  0  0  0
 42 43  1  0  0  0  0
 43 44  1  0  0  0  0
 43 47  1  0  0  0  0
 43 48  1  0  0  0  0
 44 45  1  0  0  0  0
 44 46  1  0  0  0  0
 50 51  1  0  0  0  0
 55 56  1  0  0  0  0
 56 57  1  0  0  0  0
 56 61  1  0  0  0  0
 57 58  1  0  0  0  0
 58 59  1  0  0  0  0
 58 71  1  0  0  0  0
 59 60  1  0  0  0  0
 60 61  1  0  0  0  0
 63 64  1  0  0  0  0
 64 65  1  0  0  0  0
 67 68  4  0  0  0  0
 67 72  4  0  0  0  0
 68 69  4  0  0  0  0
 69 70  4  0  0  0  0
 70 71  4  0  0  0  0
 71 72  4  0  0  0  0
M  END
$$$$
