mol_ETKDG4_117
  PyMOL3.1          3D                             0

 73 79  0  0  0  0  0  0  0  0999 V2000
   -0.9120   15.8145  -12.1247 C   0  0  0  0  0  0  0  0  0  0  0  0
   -0.6447   14.3354  -12.2815 C   0  0  0  0  0  0  0  0  0  0  0  0
   -0.7448   13.8648  -13.6150 O   0  0  0  0  0  0  0  0  0  0  0  0
   -2.0244   13.4276  -14.0596 C   0  0  0  0  0  0  0  0  0  0  0  0
    0.6934   13.9501  -11.7827 C   0  0  0  0  0  0  0  0  0  0  0  0
    1.7517   14.5819  -12.2648 N   0  0  0  0  0  0  0  0  0  0  0  0
    2.9912   14.2249  -11.8544 C   0  0  0  0  0  0  0  0  0  0  0  0
    3.1798   13.2176  -10.9151 C   0  0  0  0  0  0  0  0  0  0  0  0
    2.0792   12.5748  -10.4197 C   0  0  0  0  0  0  0  0  0  0  0  0
    0.8439   12.9351  -10.8577 C   0  0  0  0  0  0  0  0  0  0  0  0
   -0.3179   12.2788  -10.3383 C   0  0  0  0  0  0  0  0  0  0  0  0
   -0.9387   11.2306  -10.9533 N   0  0  0  0  0  0  0  0  0  0  0  0
   -0.4894   10.4890  -12.1453 C   0  0  0  0  0  0  0  0  0  0  0  0
    0.2531    9.2104  -11.7082 C   0  0  0  0  0  0  0  0  0  0  0  0
   -1.0494   12.6742   -9.2133 C   0  0  0  0  0  0  0  0  0  0  0  0
   -0.8045   13.7423   -8.1858 C   0  0  0  0  0  0  0  0  0  0  0  0
   -0.0333   13.2934   -6.8966 C   0  0  0  0  0  0  0  0  0  0  0  0
   -0.5810   14.0739   -5.6964 C   0  0  0  0  0  0  0  0  0  0  0  0
    1.4661   13.6293   -7.0393 C   0  0  0  0  0  0  0  0  0  0  0  0
   -0.0746   11.8721   -6.6102 C   0  0  0  0  0  0  0  0  0  0  0  0
   -0.7434   11.3984   -5.3973 O   0  0  0  0  0  0  0  0  0  0  0  0
   -0.9946   10.0294   -5.1561 C   0  0  0  0  0  0  0  0  0  0  0  0
   -1.7148    9.7526   -3.8701 C   0  0  0  0  0  0  0  0  0  0  0  0
   -2.3987    8.4751   -4.0115 N   0  0  0  0  0  0  0  0  0  0  0  0
   -3.0727    8.0676   -2.8820 N   0  0  0  0  0  0  0  0  0  0  0  0
   -4.4358    7.9500   -2.8781 C   0  0  0  0  0  0  0  0  0  0  0  0
   -5.1552    8.2163   -4.1647 C   0  0  0  0  0  0  0  0  0  0  0  0
   -6.3424    7.4054   -4.3377 N   0  0  0  0  0  0  0  0  0  0  0  0
   -6.4638    6.4267   -5.2601 C   0  0  0  0  0  0  0  0  0  0  0  0
   -7.8506    5.8731   -5.3860 C   0  0  0  0  0  0  0  0  0  0  0  0
   -7.9735    4.3676   -5.0326 C   0  0  0  0  0  0  0  0  0  0  0  0
   -9.4165    3.9066   -5.2162 C   0  0  0  0  0  0  0  0  0  0  0  0
   -7.5453    4.1442   -3.5715 C   0  0  0  0  0  0  0  0  0  0  0  0
   -8.3241    6.1708   -6.7203 N   0  0  0  0  0  0  0  0  0  0  0  0
   -9.1039    7.2744   -6.8755 C   0  0  0  0  0  0  0  0  0  0  0  0
   -9.7480    7.6010   -8.1982 C   0  0  0  0  0  0  0  0  0  0  0  0
  -11.2187    7.9197   -7.9704 C   0  0  0  0  0  0  0  0  0  0  0  0
  -11.8249    8.2702   -9.2619 C   0  0  0  0  0  0  0  0  0  0  0  0
  -11.0553    9.3547   -9.8808 N   0  0  0  0  0  0  0  0  0  0  0  0
  -11.6023   10.5366  -10.1499 C   0  0  0  0  0  0  0  0  0  0  0  0
  -12.8988   10.7748   -9.6610 C   0  0  0  0  0  0  0  0  0  0  0  0
  -13.9722   10.9904   -9.2896 C   0  0  0  0  0  0  0  0  0  0  0  0
  -15.2813   11.1698   -8.7071 C   0  0  0  0  0  0  0  0  0  0  0  0
  -15.3785   10.4216   -7.4376 N   0  0  0  0  0  0  0  0  0  0  0  0
  -14.3414   10.7834   -6.4509 C   0  0  0  0  0  0  0  0  0  0  0  0
  -15.5200    8.9682   -7.5818 C   0  0  0  0  0  0  0  0  0  0  0  0
  -15.5083   12.6551   -8.4261 C   0  0  0  0  0  0  0  0  0  0  0  0
  -16.3277   10.6451   -9.7043 C   0  0  0  0  0  0  0  0  0  0  0  0
  -10.9809   11.3776  -10.7773 O   0  0  0  0  0  0  0  0  0  0  0  0
   -9.6337    9.1220  -10.1331 C   0  0  0  0  0  0  0  0  0  0  0  0
   -8.9966    8.7812   -8.8121 C   0  0  0  0  0  0  0  0  0  0  0  0
   -9.3289    8.0241   -5.9097 O   0  0  0  0  0  0  0  0  0  0  0  0
   -7.8701    5.2772   -7.8216 C   0  0  0  0  0  0  0  0  0  0  0  0
   -5.5278    6.0779   -5.9744 O   0  0  0  0  0  0  0  0  0  0  0  0
   -5.6031    9.7102   -4.1299 C   0  0  0  0  0  0  0  0  0  0  0  0
   -6.0885   10.1533   -5.4894 C   0  0  0  0  0  0  0  0  0  0  0  0
   -4.8762   10.3852   -6.3567 C   0  0  0  0  0  0  0  0  0  0  0  0
   -5.2948   10.8974   -7.6683 N   0  0  0  0  0  0  0  0  0  0  0  0
   -6.1493   12.1562   -7.4893 C   0  0  0  0  0  0  0  0  0  0  0  0
   -7.3307   11.8406   -6.6342 C   0  0  0  0  0  0  0  0  0  0  0  0
   -6.8671   11.3402   -5.3556 O   0  0  0  0  0  0  0  0  0  0  0  0
   -5.0655    7.7134   -1.8697 O   0  0  0  0  0  0  0  0  0  0  0  0
   -2.2366    7.8844   -1.7011 C   0  0  0  0  0  0  0  0  0  0  0  0
   -1.4830    9.2212   -1.4319 C   0  0  0  0  0  0  0  0  0  0  0  0
   -0.7477    9.6800   -2.6834 C   0  0  0  0  0  0  0  0  0  0  0  0
   -0.7072    9.0447   -5.8936 O   0  0  0  0  0  0  0  0  0  0  0  0
   -2.1234   11.8334   -9.2011 C   0  0  0  0  0  0  0  0  0  0  0  0
   -2.0314   10.9381  -10.2736 C   0  0  0  0  0  0  0  0  0  0  0  0
   -3.0506    9.9689  -10.4586 C   0  0  0  0  0  0  0  0  0  0  0  0
   -4.1071    9.9534   -9.5674 C   0  0  0  0  0  0  0  0  0  0  0  0
   -4.1931   10.9051   -8.5270 C   0  0  0  0  0  0  0  0  0  0  0  0
   -3.1528   11.8191   -8.3463 C   0  0  0  0  0  0  0  0  0  0  0  0
   -9.7026    6.5651   -9.1012 F   0  0  0  0  0  0  0  0  0  0  0  0
  1  2  1  0  0  0  0
  2  3  1  0  0  0  0
  2  5  1  0  0  0  0
  3  4  1  0  0  0  0
  5  6  4  0  0  0  0
  5 10  4  0  0  0  0
  6  7  4  0  0  0  0
  7  8  4  0  0  0  0
  8  9  4  0  0  0  0
  9 10  4  0  0  0  0
 10 11  1  0  0  0  0
 11 12  4  0  0  0  0
 11 15  4  0  0  0  0
 12 13  1  0  0  0  0
 12 68  4  0  0  0  0
 13 14  1  0  0  0  0
 15 16  1  0  0  0  0
 15 67  4  0  0  0  0
 16 17  1  0  0  0  0
 17 18  1  0  0  0  0
 17 19  1  0  0  0  0
 17 20  1  0  0  0  0
 20 21  1  0  0  0  0
 21 22  1  0  0  0  0
 22 23  1  0  0  0  0
 22 66  2  0  0  0  0
 23 24  1  0  0  0  0
 23 65  1  0  0  0  0
 24 25  1  0  0  0  0
 25 26  1  0  0  0  0
 25 63  1  0  0  0  0
 26 27  1  0  0  0  0
 26 62  2  0  0  0  0
 27 28  1  0  0  0  0
 27 55  1  0  0  0  0
 28 29  1  0  0  0  0
 29 30  1  0  0  0  0
 29 54  2  0  0  0  0
 30 31  1  0  0  0  0
 30 34  1  0  0  0  0
 31 32  1  0  0  0  0
 31 33  1  0  0  0  0
 34 35  1  0  0  0  0
 34 53  1  0  0  0  0
 35 36  1  0  0  0  0
 35 52  2  0  0  0  0
 36 37  1  0  0  0  0
 36 51  1  0  0  0  0
 36 73  1  0  0  0  0
 37 38  1  0  0  0  0
 38 39  1  0  0  0  0
 39 40  1  0  0  0  0
 39 50  1  0  0  0  0
 40 41  1  0  0  0  0
 40 49  2  0  0  0  0
 41 42  1  0  0  0  0
 42 43  1  0  0  0  0
 43 44  1  0  0  0  0
 43 47  1  0  0  0  0
 43 48  1  0  0  0  0
 44 45  1  0  0  0  0
 44 46  1  0  0  0  0
 50 51  1  0  0  0  0
 55 56  1  0  0  0  0
 56 57  1  0  0  0  0
 56 61  1  0  0  0  0
 57 58  1  0  0  0  0
 58 59  1  0  0  0  0
 58 71  1  0  0  0  0
 59 60  1  0  0  0  0
 60 61  1  0  0  0  0
 63 64  1  0  0  0  0
 64 65  1  0  0  0  0
 67 68  4  0  0  0  0
 67 72  4  0  0  0  0
 68 69  4  0  0  0  0
 69 70  4  0  0  0  0
 70 71  4  0  0  0  0
 71 72  4  0  0  0  0
M  END
$$$$
