mol_ETKDG2_54
  PyMOL3.1          3D                             0

 73 79  0  0  0  0  0  0  0  0999 V2000
   -0.1303   16.3174  -11.6279 C   0  0  0  0  0  0  0  0  0  0  0  0
   -0.0397   14.8059  -11.6873 C   0  0  0  0  0  0  0  0  0  0  0  0
   -0.1383   14.2839  -12.9987 O   0  0  0  0  0  0  0  0  0  0  0  0
   -1.4429   13.9395  -13.4530 C   0  0  0  0  0  0  0  0  0  0  0  0
    1.2258   14.3013  -11.1306 C   0  0  0  0  0  0  0  0  0  0  0  0
    2.3622   14.9029  -11.4700 N   0  0  0  0  0  0  0  0  0  0  0  0
    3.5381   14.4581  -11.0066 C   0  0  0  0  0  0  0  0  0  0  0  0
    3.5978   13.3666  -10.1422 C   0  0  0  0  0  0  0  0  0  0  0  0
    2.4378   12.7475   -9.7909 C   0  0  0  0  0  0  0  0  0  0  0  0
    1.2547   13.2058  -10.2978 C   0  0  0  0  0  0  0  0  0  0  0  0
    0.0257   12.5573   -9.9222 C   0  0  0  0  0  0  0  0  0  0  0  0
   -0.5413   11.5263  -10.6081 N   0  0  0  0  0  0  0  0  0  0  0  0
   -0.0016   10.8160  -11.7708 C   0  0  0  0  0  0  0  0  0  0  0  0
    0.6612    9.5152  -11.2894 C   0  0  0  0  0  0  0  0  0  0  0  0
   -0.8061   12.9291   -8.8708 C   0  0  0  0  0  0  0  0  0  0  0  0
   -0.6340   13.9770   -7.8253 C   0  0  0  0  0  0  0  0  0  0  0  0
    0.0067   13.4825   -6.4900 C   0  0  0  0  0  0  0  0  0  0  0  0
   -0.7302   14.1565   -5.3297 C   0  0  0  0  0  0  0  0  0  0  0  0
    1.4950   13.9004   -6.4329 C   0  0  0  0  0  0  0  0  0  0  0  0
    0.0165   12.0577   -6.2971 C   0  0  0  0  0  0  0  0  0  0  0  0
   -0.6909   11.4863   -5.1565 O   0  0  0  0  0  0  0  0  0  0  0  0
   -0.9731   10.1083   -5.0462 C   0  0  0  0  0  0  0  0  0  0  0  0
   -1.7073    9.7572   -3.7931 C   0  0  0  0  0  0  0  0  0  0  0  0
   -2.3901    8.4846   -4.0075 N   0  0  0  0  0  0  0  0  0  0  0  0
   -3.0789    8.0414   -2.9003 N   0  0  0  0  0  0  0  0  0  0  0  0
   -4.4405    7.9469   -2.9012 C   0  0  0  0  0  0  0  0  0  0  0  0
   -5.1458    8.2674   -4.2002 C   0  0  0  0  0  0  0  0  0  0  0  0
   -6.3422    7.4657   -4.3911 N   0  0  0  0  0  0  0  0  0  0  0  0
   -6.4625    6.5232   -5.3296 C   0  0  0  0  0  0  0  0  0  0  0  0
   -7.8386    5.9585   -5.4642 C   0  0  0  0  0  0  0  0  0  0  0  0
   -7.9232    4.4448   -5.1019 C   0  0  0  0  0  0  0  0  0  0  0  0
   -9.3499    3.9384   -5.3133 C   0  0  0  0  0  0  0  0  0  0  0  0
   -7.5214    4.2399   -3.6324 C   0  0  0  0  0  0  0  0  0  0  0  0
   -8.3335    6.2174   -6.8031 N   0  0  0  0  0  0  0  0  0  0  0  0
   -9.2131    7.2468   -6.9767 C   0  0  0  0  0  0  0  0  0  0  0  0
   -9.9430    7.3960   -8.2949 C   0  0  0  0  0  0  0  0  0  0  0  0
  -10.8101    8.6481   -8.3350 C   0  0  0  0  0  0  0  0  0  0  0  0
  -11.5857    8.6748   -9.6028 C   0  0  0  0  0  0  0  0  0  0  0  0
  -12.3468    7.4214   -9.7243 N   0  0  0  0  0  0  0  0  0  0  0  0
  -13.6961    7.3626   -9.7888 C   0  0  0  0  0  0  0  0  0  0  0  0
  -14.4264    8.5439   -9.6496 C   0  0  0  0  0  0  0  0  0  0  0  0
  -15.1093    9.4670   -9.5620 C   0  0  0  0  0  0  0  0  0  0  0  0
  -15.8709   10.6722   -9.3665 C   0  0  0  0  0  0  0  0  0  0  0  0
  -15.1685   11.5487   -8.4077 N   0  0  0  0  0  0  0  0  0  0  0  0
  -14.8603   10.8810   -7.1223 C   0  0  0  0  0  0  0  0  0  0  0  0
  -13.9741   12.2112   -8.9744 C   0  0  0  0  0  0  0  0  0  0  0  0
  -17.2470   10.3101   -8.8163 C   0  0  0  0  0  0  0  0  0  0  0  0
  -16.0122   11.3743  -10.7223 C   0  0  0  0  0  0  0  0  0  0  0  0
  -14.2644    6.2950   -9.9444 O   0  0  0  0  0  0  0  0  0  0  0  0
  -11.5992    6.1866   -9.6898 C   0  0  0  0  0  0  0  0  0  0  0  0
  -10.8525    6.1766   -8.4000 C   0  0  0  0  0  0  0  0  0  0  0  0
   -9.4530    8.0269   -6.0457 O   0  0  0  0  0  0  0  0  0  0  0  0
   -7.8328    5.3371   -7.8985 C   0  0  0  0  0  0  0  0  0  0  0  0
   -5.5285    6.1795   -6.0508 O   0  0  0  0  0  0  0  0  0  0  0  0
   -5.5792    9.7519   -4.1420 C   0  0  0  0  0  0  0  0  0  0  0  0
   -6.0165   10.2295   -5.5114 C   0  0  0  0  0  0  0  0  0  0  0  0
   -4.7835   10.4602   -6.3352 C   0  0  0  0  0  0  0  0  0  0  0  0
   -5.1425   11.0518   -7.6329 N   0  0  0  0  0  0  0  0  0  0  0  0
   -5.9972   12.3148   -7.4208 C   0  0  0  0  0  0  0  0  0  0  0  0
   -7.2035   11.9803   -6.6142 C   0  0  0  0  0  0  0  0  0  0  0  0
   -6.7879   11.4194   -5.3576 O   0  0  0  0  0  0  0  0  0  0  0  0
   -5.0831    7.7017   -1.9103 O   0  0  0  0  0  0  0  0  0  0  0  0
   -2.2593    7.8065   -1.7143 C   0  0  0  0  0  0  0  0  0  0  0  0
   -1.5093    9.1251   -1.3812 C   0  0  0  0  0  0  0  0  0  0  0  0
   -0.7556    9.6206   -2.6036 C   0  0  0  0  0  0  0  0  0  0  0  0
   -0.7003    9.1891   -5.8547 O   0  0  0  0  0  0  0  0  0  0  0  0
   -1.8813   12.0788   -8.9504 C   0  0  0  0  0  0  0  0  0  0  0  0
   -1.6948   11.2115  -10.0169 C   0  0  0  0  0  0  0  0  0  0  0  0
   -2.6876   10.2289  -10.2898 C   0  0  0  0  0  0  0  0  0  0  0  0
   -3.8059   10.1786   -9.4767 C   0  0  0  0  0  0  0  0  0  0  0  0
   -3.9878   11.1082   -8.4204 C   0  0  0  0  0  0  0  0  0  0  0  0
   -2.9666   12.0352   -8.1731 C   0  0  0  0  0  0  0  0  0  0  0  0
   -9.0359    7.4634   -9.3393 F   0  0  0  0  0  0  0  0  0  0  0  0
  1  2  1  0  0  0  0
  2  3  1  0  0  0  0
  2  5  1  0  0  0  0
  3  4  1  0  0  0  0
  5  6  4  0  0  0  0
  5 10  4  0  0  0  0
  6  7  4  0  0  0  0
  7  8  4  0  0  0  0
  8  9  4  0  0  0  0
  9 10  4  0  0  0  0
 10 11  1  0  0  0  0
 11 12  4  0  0  0  0
 11 15  4  0  0  0  0
 12 13  1  0  0  0  0
 12 68  4  0  0  0  0
 13 14  1  0  0  0  0
 15 16  1  0  0  0  0
 15 67  4  0  0  0  0
 16 17  1  0  0  0  0
 17 18  1  0  0  0  0
 17 19  1  0  0  0  0
 17 20  1  0  0  0  0
 20 21  1  0  0  0  0
 21 22  1  0  0  0  0
 22 23  1  0  0  0  0
 22 66  2  0  0  0  0
 23 24  1  0  0  0  0
 23 65  1  0  0  0  0
 24 25  1  0  0  0  0
 25 26  1  0  0  0  0
 25 63  1  0  0  0  0
 26 27  1  0  0  0  0
 26 62  2  0  0  0  0
 27 28  1  0  0  0  0
 27 55  1  0  0  0  0
 28 29  1  0  0  0  0
 29 30  1  0  0  0  0
 29 54  2  0  0  0  0
 30 31  1  0  0  0  0
 30 34  1  0  0  0  0
 31 32  1  0  0  0  0
 31 33  1  0  0  0  0
 34 35  1  0  0  0  0
 34 53  1  0  0  0  0
 35 36  1  0  0  0  0
 35 52  2  0  0  0  0
 36 37  1  0  0  0  0
 36 51  1  0  0  0  0
 36 73  1  0  0  0  0
 37 38  1  0  0  0  0
 38 39  1  0  0  0  0
 39 40  1  0  0  0  0
 39 50  1  0  0  0  0
 40 41  1  0  0  0  0
 40 49  2  0  0  0  0
 41 42  1  0  0  0  0
 42 43  1  0  0  0  0
 43 44  1  0  0  0  0
 43 47  1  0  0  0  0
 43 48  1  0  0  0  0
 44 45  1  0  0  0  0
 44 46  1  0  0  0  0
 50 51  1  0  0  0  0
 55 56  1  0  0  0  0
 56 57  1  0  0  0  0
 56 61  1  0  0  0  0
 57 58  1  0  0  0  0
 58 59  1  0  0  0  0
 58 71  1  0  0  0  0
 59 60  1  0  0  0  0
 60 61  1  0  0  0  0
 63 64  1  0  0  0  0
 64 65  1  0  0  0  0
 67 68  4  0  0  0  0
 67 72  4  0  0  0  0
 68 69  4  0  0  0  0
 69 70  4  0  0  0  0
 70 71  4  0  0  0  0
 71 72  4  0  0  0  0
M  END
$$$$
