mol_ETKDG2_61
  PyMOL3.1          3D                             0

 73 79  0  0  0  0  0  0  0  0999 V2000
   -0.0701   15.5864  -12.9177 C   0  0  0  0  0  0  0  0  0  0  0  0
   -0.1702   15.0881  -11.4911 C   0  0  0  0  0  0  0  0  0  0  0  0
   -0.5387   16.0975  -10.5936 O   0  0  0  0  0  0  0  0  0  0  0  0
   -1.9264   16.3672  -10.4407 C   0  0  0  0  0  0  0  0  0  0  0  0
    1.1015   14.5231  -11.0055 C   0  0  0  0  0  0  0  0  0  0  0  0
    2.2352   15.1258  -11.3398 N   0  0  0  0  0  0  0  0  0  0  0  0
    3.4139   14.6334  -10.9379 C   0  0  0  0  0  0  0  0  0  0  0  0
    3.4800   13.4671  -10.1797 C   0  0  0  0  0  0  0  0  0  0  0  0
    2.3237   12.8413   -9.8407 C   0  0  0  0  0  0  0  0  0  0  0  0
    1.1338   13.3760  -10.2426 C   0  0  0  0  0  0  0  0  0  0  0  0
   -0.0900   12.7391   -9.8461 C   0  0  0  0  0  0  0  0  0  0  0  0
   -0.7059   11.7673  -10.5590 N   0  0  0  0  0  0  0  0  0  0  0  0
   -0.2408   11.1463  -11.8026 C   0  0  0  0  0  0  0  0  0  0  0  0
    0.3499    9.7713  -11.5005 C   0  0  0  0  0  0  0  0  0  0  0  0
   -0.8669   13.0601   -8.7353 C   0  0  0  0  0  0  0  0  0  0  0  0
   -0.6377   14.0403   -7.6401 C   0  0  0  0  0  0  0  0  0  0  0  0
    0.1109   13.4841   -6.3971 C   0  0  0  0  0  0  0  0  0  0  0  0
   -0.4712   14.1435   -5.1473 C   0  0  0  0  0  0  0  0  0  0  0  0
    1.6117   13.8520   -6.4842 C   0  0  0  0  0  0  0  0  0  0  0  0
    0.0747   12.0439   -6.2516 C   0  0  0  0  0  0  0  0  0  0  0  0
   -0.6206   11.4583   -5.1142 O   0  0  0  0  0  0  0  0  0  0  0  0
   -0.9165   10.0868   -5.0243 C   0  0  0  0  0  0  0  0  0  0  0  0
   -1.6388    9.7278   -3.7693 C   0  0  0  0  0  0  0  0  0  0  0  0
   -2.3477    8.4768   -3.9861 N   0  0  0  0  0  0  0  0  0  0  0  0
   -3.0255    8.0295   -2.8801 N   0  0  0  0  0  0  0  0  0  0  0  0
   -4.3856    7.9374   -2.8696 C   0  0  0  0  0  0  0  0  0  0  0  0
   -5.1008    8.2740   -4.1450 C   0  0  0  0  0  0  0  0  0  0  0  0
   -6.2746    7.4571   -4.3469 N   0  0  0  0  0  0  0  0  0  0  0  0
   -6.3768    6.5212   -5.2898 C   0  0  0  0  0  0  0  0  0  0  0  0
   -7.7451    5.9430   -5.4110 C   0  0  0  0  0  0  0  0  0  0  0  0
   -7.8119    4.4240   -5.0879 C   0  0  0  0  0  0  0  0  0  0  0  0
   -9.2192    3.8937   -5.3450 C   0  0  0  0  0  0  0  0  0  0  0  0
   -7.4459    4.1990   -3.6124 C   0  0  0  0  0  0  0  0  0  0  0  0
   -8.2639    6.2558   -6.7156 N   0  0  0  0  0  0  0  0  0  0  0  0
   -9.0844    7.3269   -6.8019 C   0  0  0  0  0  0  0  0  0  0  0  0
   -9.9020    7.5608   -8.0356 C   0  0  0  0  0  0  0  0  0  0  0  0
  -10.7059    8.8474   -7.8798 C   0  0  0  0  0  0  0  0  0  0  0  0
  -11.6954    8.9645   -8.9695 C   0  0  0  0  0  0  0  0  0  0  0  0
  -12.4892    7.7354   -8.9905 N   0  0  0  0  0  0  0  0  0  0  0  0
  -13.7878    7.6565   -8.6201 C   0  0  0  0  0  0  0  0  0  0  0  0
  -14.3973    8.7640   -8.0444 C   0  0  0  0  0  0  0  0  0  0  0  0
  -14.9800    9.6235   -7.5540 C   0  0  0  0  0  0  0  0  0  0  0  0
  -15.5799   10.7489   -6.8785 C   0  0  0  0  0  0  0  0  0  0  0  0
  -14.7450   11.1353   -5.7315 N   0  0  0  0  0  0  0  0  0  0  0  0
  -14.5930   10.0684   -4.7321 C   0  0  0  0  0  0  0  0  0  0  0  0
  -13.4408   11.7147   -6.1271 C   0  0  0  0  0  0  0  0  0  0  0  0
  -16.9706   10.3475   -6.3881 C   0  0  0  0  0  0  0  0  0  0  0  0
  -15.6816   11.9232   -7.8579 C   0  0  0  0  0  0  0  0  0  0  0  0
  -14.4138    6.6081   -8.7504 O   0  0  0  0  0  0  0  0  0  0  0  0
  -11.7879    6.5112   -9.2580 C   0  0  0  0  0  0  0  0  0  0  0  0
  -10.8528    6.3654   -8.1065 C   0  0  0  0  0  0  0  0  0  0  0  0
   -9.2236    8.0876   -5.8341 O   0  0  0  0  0  0  0  0  0  0  0  0
   -7.8535    5.3947   -7.8626 C   0  0  0  0  0  0  0  0  0  0  0  0
   -5.4457    6.1910   -6.0174 O   0  0  0  0  0  0  0  0  0  0  0  0
   -5.5531    9.7489   -4.0342 C   0  0  0  0  0  0  0  0  0  0  0  0
   -6.0066   10.2648   -5.3786 C   0  0  0  0  0  0  0  0  0  0  0  0
   -4.7797   10.5642   -6.1839 C   0  0  0  0  0  0  0  0  0  0  0  0
   -5.1676   11.1745   -7.4533 N   0  0  0  0  0  0  0  0  0  0  0  0
   -6.0428   12.4051   -7.2124 C   0  0  0  0  0  0  0  0  0  0  0  0
   -7.2491   12.0071   -6.4284 C   0  0  0  0  0  0  0  0  0  0  0  0
   -6.8175   11.4251   -5.1859 O   0  0  0  0  0  0  0  0  0  0  0  0
   -5.0207    7.6784   -1.8784 O   0  0  0  0  0  0  0  0  0  0  0  0
   -2.2018    7.7757   -1.7037 C   0  0  0  0  0  0  0  0  0  0  0  0
   -1.4306    9.0753   -1.3736 C   0  0  0  0  0  0  0  0  0  0  0  0
   -0.6765    9.5618   -2.5947 C   0  0  0  0  0  0  0  0  0  0  0  0
   -0.6638    9.1778   -5.8536 O   0  0  0  0  0  0  0  0  0  0  0  0
   -1.9553   12.2371   -8.8185 C   0  0  0  0  0  0  0  0  0  0  0  0
   -1.8300   11.4336   -9.9396 C   0  0  0  0  0  0  0  0  0  0  0  0
   -2.8463   10.4861  -10.2278 C   0  0  0  0  0  0  0  0  0  0  0  0
   -3.9282   10.4064   -9.3791 C   0  0  0  0  0  0  0  0  0  0  0  0
   -4.0461   11.2684   -8.2648 C   0  0  0  0  0  0  0  0  0  0  0  0
   -3.0126   12.1699   -7.9955 C   0  0  0  0  0  0  0  0  0  0  0  0
   -9.0924    7.6537   -9.1620 F   0  0  0  0  0  0  0  0  0  0  0  0
  1  2  1  0  0  0  0
  2  3  1  0  0  0  0
  2  5  1  0  0  0  0
  3  4  1  0  0  0  0
  5  6  4  0  0  0  0
  5 10  4  0  0  0  0
  6  7  4  0  0  0  0
  7  8  4  0  0  0  0
  8  9  4  0  0  0  0
  9 10  4  0  0  0  0
 10 11  1  0  0  0  0
 11 12  4  0  0  0  0
 11 15  4  0  0  0  0
 12 13  1  0  0  0  0
 12 68  4  0  0  0  0
 13 14  1  0  0  0  0
 15 16  1  0  0  0  0
 15 67  4  0  0  0  0
 16 17  1  0  0  0  0
 17 18  1  0  0  0  0
 17 19  1  0  0  0  0
 17 20  1  0  0  0  0
 20 21  1  0  0  0  0
 21 22  1  0  0  0  0
 22 23  1  0  0  0  0
 22 66  2  0  0  0  0
 23 24  1  0  0  0  0
 23 65  1  0  0  0  0
 24 25  1  0  0  0  0
 25 26  1  0  0  0  0
 25 63  1  0  0  0  0
 26 27  1  0  0  0  0
 26 62  2  0  0  0  0
 27 28  1  0  0  0  0
 27 55  1  0  0  0  0
 28 29  1  0  0  0  0
 29 30  1  0  0  0  0
 29 54  2  0  0  0  0
 30 31  1  0  0  0  0
 30 34  1  0  0  0  0
 31 32  1  0  0  0  0
 31 33  1  0  0  0  0
 34 35  1  0  0  0  0
 34 53  1  0  0  0  0
 35 36  1  0  0  0  0
 35 52  2  0  0  0  0
 36 37  1  0  0  0  0
 36 51  1  0  0  0  0
 36 73  1  0  0  0  0
 37 38  1  0  0  0  0
 38 39  1  0  0  0  0
 39 40  1  0  0  0  0
 39 50  1  0  0  0  0
 40 41  1  0  0  0  0
 40 49  2  0  0  0  0
 41 42  1  0  0  0  0
 42 43  1  0  0  0  0
 43 44  1  0  0  0  0
 43 47  1  0  0  0  0
 43 48  1  0  0  0  0
 44 45  1  0  0  0  0
 44 46  1  0  0  0  0
 50 51  1  0  0  0  0
 55 56  1  0  0  0  0
 56 57  1  0  0  0  0
 56 61  1  0  0  0  0
 57 58  1  0  0  0  0
 58 59  1  0  0  0  0
 58 71  1  0  0  0  0
 59 60  1  0  0  0  0
 60 61  1  0  0  0  0
 63 64  1  0  0  0  0
 64 65  1  0  0  0  0
 67 68  4  0  0  0  0
 67 72  4  0  0  0  0
 68 69  4  0  0  0  0
 69 70  4  0  0  0  0
 70 71  4  0  0  0  0
 71 72  4  0  0  0  0
M  END
$$$$
