mol_ETKDG2_70
  PyMOL3.1          3D                             0

 73 79  0  0  0  0  0  0  0  0999 V2000
    0.2371   16.7975  -11.2893 C   0  0  0  0  0  0  0  0  0  0  0  0
   -0.0123   15.3520  -10.9427 C   0  0  0  0  0  0  0  0  0  0  0  0
   -0.6285   14.6779  -12.0121 O   0  0  0  0  0  0  0  0  0  0  0  0
   -2.0374   14.8679  -12.1398 C   0  0  0  0  0  0  0  0  0  0  0  0
    1.2335   14.6233  -10.6167 C   0  0  0  0  0  0  0  0  0  0  0  0
    2.4037   15.1939  -10.8776 N   0  0  0  0  0  0  0  0  0  0  0  0
    3.5546   14.5607  -10.6261 C   0  0  0  0  0  0  0  0  0  0  0  0
    3.5604   13.2918  -10.0619 C   0  0  0  0  0  0  0  0  0  0  0  0
    2.3738   12.6994   -9.7861 C   0  0  0  0  0  0  0  0  0  0  0  0
    1.2110   13.3502  -10.0794 C   0  0  0  0  0  0  0  0  0  0  0  0
   -0.0455   12.7193   -9.7636 C   0  0  0  0  0  0  0  0  0  0  0  0
   -0.6635   11.7775  -10.5272 N   0  0  0  0  0  0  0  0  0  0  0  0
   -0.1847   11.1750  -11.7696 C   0  0  0  0  0  0  0  0  0  0  0  0
    0.3651    9.7734  -11.4757 C   0  0  0  0  0  0  0  0  0  0  0  0
   -0.8504   13.0190   -8.6774 C   0  0  0  0  0  0  0  0  0  0  0  0
   -0.6452   13.9788   -7.5688 C   0  0  0  0  0  0  0  0  0  0  0  0
    0.0707   13.3974   -6.3244 C   0  0  0  0  0  0  0  0  0  0  0  0
   -0.5358   14.0454   -5.0828 C   0  0  0  0  0  0  0  0  0  0  0  0
    1.5790   13.7425   -6.3705 C   0  0  0  0  0  0  0  0  0  0  0  0
    0.0173   11.9730   -6.2156 C   0  0  0  0  0  0  0  0  0  0  0  0
   -0.6691   11.3860   -5.0880 O   0  0  0  0  0  0  0  0  0  0  0  0
   -0.9642   10.0218   -5.0073 C   0  0  0  0  0  0  0  0  0  0  0  0
   -1.6830    9.6763   -3.7560 C   0  0  0  0  0  0  0  0  0  0  0  0
   -2.3926    8.4316   -3.9675 N   0  0  0  0  0  0  0  0  0  0  0  0
   -3.0673    7.9979   -2.8564 N   0  0  0  0  0  0  0  0  0  0  0  0
   -4.4238    7.9305   -2.8409 C   0  0  0  0  0  0  0  0  0  0  0  0
   -5.1355    8.2806   -4.1160 C   0  0  0  0  0  0  0  0  0  0  0  0
   -6.3198    7.4754   -4.3154 N   0  0  0  0  0  0  0  0  0  0  0  0
   -6.3875    6.4831   -5.1920 C   0  0  0  0  0  0  0  0  0  0  0  0
   -7.7495    5.9027   -5.3585 C   0  0  0  0  0  0  0  0  0  0  0  0
   -7.8578    4.3936   -4.9978 C   0  0  0  0  0  0  0  0  0  0  0  0
   -9.2670    3.8927   -5.2882 C   0  0  0  0  0  0  0  0  0  0  0  0
   -7.5401    4.1894   -3.5073 C   0  0  0  0  0  0  0  0  0  0  0  0
   -8.1625    6.1552   -6.7066 N   0  0  0  0  0  0  0  0  0  0  0  0
   -9.0626    7.1431   -6.8999 C   0  0  0  0  0  0  0  0  0  0  0  0
   -9.6835    7.3171   -8.2560 C   0  0  0  0  0  0  0  0  0  0  0  0
  -10.8345    8.3104   -8.1935 C   0  0  0  0  0  0  0  0  0  0  0  0
  -11.5649    8.3157   -9.4824 C   0  0  0  0  0  0  0  0  0  0  0  0
  -11.9261    6.9324   -9.8087 N   0  0  0  0  0  0  0  0  0  0  0  0
  -13.1717    6.4281   -9.8006 C   0  0  0  0  0  0  0  0  0  0  0  0
  -14.1782    7.1857   -9.2425 C   0  0  0  0  0  0  0  0  0  0  0  0
  -15.0493    7.7489   -8.7875 C   0  0  0  0  0  0  0  0  0  0  0  0
  -16.0569    8.5152   -8.1046 C   0  0  0  0  0  0  0  0  0  0  0  0
  -15.4134    9.4405   -7.1527 N   0  0  0  0  0  0  0  0  0  0  0  0
  -14.5929    8.7626   -6.1248 C   0  0  0  0  0  0  0  0  0  0  0  0
  -14.6686   10.5417   -7.8028 C   0  0  0  0  0  0  0  0  0  0  0  0
  -16.9723    7.5651   -7.3375 C   0  0  0  0  0  0  0  0  0  0  0  0
  -16.8478    9.3107   -9.1444 C   0  0  0  0  0  0  0  0  0  0  0  0
  -13.4016    5.2999  -10.2251 O   0  0  0  0  0  0  0  0  0  0  0  0
  -10.8665    6.0112   -9.9702 C   0  0  0  0  0  0  0  0  0  0  0  0
  -10.2521    5.9618   -8.6215 C   0  0  0  0  0  0  0  0  0  0  0  0
   -9.4000    7.8829   -5.9729 O   0  0  0  0  0  0  0  0  0  0  0  0
   -7.5285    5.3369   -7.7762 C   0  0  0  0  0  0  0  0  0  0  0  0
   -5.4220    6.1223   -5.8576 O   0  0  0  0  0  0  0  0  0  0  0  0
   -5.5636    9.7610   -4.0200 C   0  0  0  0  0  0  0  0  0  0  0  0
   -6.0209   10.2728   -5.3688 C   0  0  0  0  0  0  0  0  0  0  0  0
   -4.8023   10.5258   -6.2084 C   0  0  0  0  0  0  0  0  0  0  0  0
   -5.1877   11.1648   -7.4785 N   0  0  0  0  0  0  0  0  0  0  0  0
   -6.0313   12.4177   -7.2015 C   0  0  0  0  0  0  0  0  0  0  0  0
   -7.2261   12.0531   -6.3946 C   0  0  0  0  0  0  0  0  0  0  0  0
   -6.7855   11.4570   -5.1625 O   0  0  0  0  0  0  0  0  0  0  0  0
   -5.0582    7.6771   -1.8453 O   0  0  0  0  0  0  0  0  0  0  0  0
   -2.2417    7.7368   -1.6855 C   0  0  0  0  0  0  0  0  0  0  0  0
   -1.4613    9.0287   -1.3589 C   0  0  0  0  0  0  0  0  0  0  0  0
   -0.7132    9.5099   -2.5853 C   0  0  0  0  0  0  0  0  0  0  0  0
   -0.7220    9.1013   -5.8330 O   0  0  0  0  0  0  0  0  0  0  0  0
   -1.9502   12.2133   -8.8035 C   0  0  0  0  0  0  0  0  0  0  0  0
   -1.8139   11.4434   -9.9429 C   0  0  0  0  0  0  0  0  0  0  0  0
   -2.8414   10.5196  -10.2720 C   0  0  0  0  0  0  0  0  0  0  0  0
   -3.9400   10.4314   -9.4359 C   0  0  0  0  0  0  0  0  0  0  0  0
   -4.0617   11.2615   -8.2946 C   0  0  0  0  0  0  0  0  0  0  0  0
   -3.0094   12.1340   -7.9995 C   0  0  0  0  0  0  0  0  0  0  0  0
   -8.7180    7.7449   -9.1532 F   0  0  0  0  0  0  0  0  0  0  0  0
  1  2  1  0  0  0  0
  2  3  1  0  0  0  0
  2  5  1  0  0  0  0
  3  4  1  0  0  0  0
  5  6  4  0  0  0  0
  5 10  4  0  0  0  0
  6  7  4  0  0  0  0
  7  8  4  0  0  0  0
  8  9  4  0  0  0  0
  9 10  4  0  0  0  0
 10 11  1  0  0  0  0
 11 12  4  0  0  0  0
 11 15  4  0  0  0  0
 12 13  1  0  0  0  0
 12 68  4  0  0  0  0
 13 14  1  0  0  0  0
 15 16  1  0  0  0  0
 15 67  4  0  0  0  0
 16 17  1  0  0  0  0
 17 18  1  0  0  0  0
 17 19  1  0  0  0  0
 17 20  1  0  0  0  0
 20 21  1  0  0  0  0
 21 22  1  0  0  0  0
 22 23  1  0  0  0  0
 22 66  2  0  0  0  0
 23 24  1  0  0  0  0
 23 65  1  0  0  0  0
 24 25  1  0  0  0  0
 25 26  1  0  0  0  0
 25 63  1  0  0  0  0
 26 27  1  0  0  0  0
 26 62  2  0  0  0  0
 27 28  1  0  0  0  0
 27 55  1  0  0  0  0
 28 29  1  0  0  0  0
 29 30  1  0  0  0  0
 29 54  2  0  0  0  0
 30 31  1  0  0  0  0
 30 34  1  0  0  0  0
 31 32  1  0  0  0  0
 31 33  1  0  0  0  0
 34 35  1  0  0  0  0
 34 53  1  0  0  0  0
 35 36  1  0  0  0  0
 35 52  2  0  0  0  0
 36 37  1  0  0  0  0
 36 51  1  0  0  0  0
 36 73  1  0  0  0  0
 37 38  1  0  0  0  0
 38 39  1  0  0  0  0
 39 40  1  0  0  0  0
 39 50  1  0  0  0  0
 40 41  1  0  0  0  0
 40 49  2  0  0  0  0
 41 42  1  0  0  0  0
 42 43  1  0  0  0  0
 43 44  1  0  0  0  0
 43 47  1  0  0  0  0
 43 48  1  0  0  0  0
 44 45  1  0  0  0  0
 44 46  1  0  0  0  0
 50 51  1  0  0  0  0
 55 56  1  0  0  0  0
 56 57  1  0  0  0  0
 56 61  1  0  0  0  0
 57 58  1  0  0  0  0
 58 59  1  0  0  0  0
 58 71  1  0  0  0  0
 59 60  1  0  0  0  0
 60 61  1  0  0  0  0
 63 64  1  0  0  0  0
 64 65  1  0  0  0  0
 67 68  4  0  0  0  0
 67 72  4  0  0  0  0
 68 69  4  0  0  0  0
 69 70  4  0  0  0  0
 70 71  4  0  0  0  0
 71 72  4  0  0  0  0
M  END
$$$$
