mol_ETKDG1_41
  PyMOL3.1          3D                             0

 73 79  0  0  0  0  0  0  0  0999 V2000
    0.2698   16.6859  -11.6977 C   0  0  0  0  0  0  0  0  0  0  0  0
    0.0076   15.2957  -11.1623 C   0  0  0  0  0  0  0  0  0  0  0  0
   -0.6716   14.5304  -12.1022 O   0  0  0  0  0  0  0  0  0  0  0  0
   -2.0733   14.7785  -12.2270 C   0  0  0  0  0  0  0  0  0  0  0  0
    1.2674   14.5868  -10.8004 C   0  0  0  0  0  0  0  0  0  0  0  0
    2.4241   15.1485  -11.1110 N   0  0  0  0  0  0  0  0  0  0  0  0
    3.5843   14.5441  -10.8399 C   0  0  0  0  0  0  0  0  0  0  0  0
    3.6146   13.3111  -10.2006 C   0  0  0  0  0  0  0  0  0  0  0  0
    2.4388   12.7272   -9.8720 C   0  0  0  0  0  0  0  0  0  0  0  0
    1.2599   13.3456  -10.1864 C   0  0  0  0  0  0  0  0  0  0  0  0
    0.0157   12.7218   -9.8224 C   0  0  0  0  0  0  0  0  0  0  0  0
   -0.5959   11.7320  -10.5375 N   0  0  0  0  0  0  0  0  0  0  0  0
   -0.1068   11.0769  -11.7505 C   0  0  0  0  0  0  0  0  0  0  0  0
    0.4957    9.7074  -11.3992 C   0  0  0  0  0  0  0  0  0  0  0  0
   -0.7893   13.0612   -8.7408 C   0  0  0  0  0  0  0  0  0  0  0  0
   -0.5917   14.0598   -7.6626 C   0  0  0  0  0  0  0  0  0  0  0  0
    0.1271   13.5229   -6.4018 C   0  0  0  0  0  0  0  0  0  0  0  0
   -0.4630   14.1993   -5.1599 C   0  0  0  0  0  0  0  0  0  0  0  0
    1.6361   13.8405   -6.4593 C   0  0  0  0  0  0  0  0  0  0  0  0
    0.0600   12.0723   -6.2365 C   0  0  0  0  0  0  0  0  0  0  0  0
   -0.6733   11.5007   -5.1205 O   0  0  0  0  0  0  0  0  0  0  0  0
   -0.9935   10.1325   -5.0460 C   0  0  0  0  0  0  0  0  0  0  0  0
   -1.7167    9.7687   -3.7912 C   0  0  0  0  0  0  0  0  0  0  0  0
   -2.4236    8.5159   -4.0093 N   0  0  0  0  0  0  0  0  0  0  0  0
   -3.0972    8.0581   -2.9016 N   0  0  0  0  0  0  0  0  0  0  0  0
   -4.4548    7.9663   -2.8926 C   0  0  0  0  0  0  0  0  0  0  0  0
   -5.1782    8.3097   -4.1696 C   0  0  0  0  0  0  0  0  0  0  0  0
   -6.3661    7.5131   -4.3812 N   0  0  0  0  0  0  0  0  0  0  0  0
   -6.4667    6.5700   -5.3187 C   0  0  0  0  0  0  0  0  0  0  0  0
   -7.8447    6.0047   -5.4668 C   0  0  0  0  0  0  0  0  0  0  0  0
   -7.9342    4.4866   -5.1433 C   0  0  0  0  0  0  0  0  0  0  0  0
   -9.3459    3.9837   -5.3891 C   0  0  0  0  0  0  0  0  0  0  0  0
   -7.5523    4.2524   -3.6715 C   0  0  0  0  0  0  0  0  0  0  0  0
   -8.3273    6.3110   -6.7978 N   0  0  0  0  0  0  0  0  0  0  0  0
   -9.1724    7.3681   -6.9268 C   0  0  0  0  0  0  0  0  0  0  0  0
   -9.8822    7.6211   -8.2400 C   0  0  0  0  0  0  0  0  0  0  0  0
  -10.6908    8.9184   -8.2053 C   0  0  0  0  0  0  0  0  0  0  0  0
  -11.4448    9.0664   -9.4685 C   0  0  0  0  0  0  0  0  0  0  0  0
  -12.2737    7.8739   -9.6871 N   0  0  0  0  0  0  0  0  0  0  0  0
  -13.6243    7.8969   -9.7919 C   0  0  0  0  0  0  0  0  0  0  0  0
  -14.3072    9.1100   -9.6362 C   0  0  0  0  0  0  0  0  0  0  0  0
  -14.9753   10.0480   -9.5480 C   0  0  0  0  0  0  0  0  0  0  0  0
  -15.6192   11.3247   -9.3687 C   0  0  0  0  0  0  0  0  0  0  0  0
  -16.0395   11.5134   -7.9743 N   0  0  0  0  0  0  0  0  0  0  0  0
  -15.1506   10.9235   -6.9684 C   0  0  0  0  0  0  0  0  0  0  0  0
  -17.4179   11.2835   -7.6542 C   0  0  0  0  0  0  0  0  0  0  0  0
  -16.8218   11.3711  -10.3193 C   0  0  0  0  0  0  0  0  0  0  0  0
  -14.6331   12.4641   -9.7247 C   0  0  0  0  0  0  0  0  0  0  0  0
  -14.2570    6.8744  -10.0057 O   0  0  0  0  0  0  0  0  0  0  0  0
  -11.5814    6.5999   -9.7241 C   0  0  0  0  0  0  0  0  0  0  0  0
  -10.8524    6.4598   -8.4307 C   0  0  0  0  0  0  0  0  0  0  0  0
   -9.3985    8.1111   -5.9598 O   0  0  0  0  0  0  0  0  0  0  0  0
   -7.8457    5.4643   -7.9198 C   0  0  0  0  0  0  0  0  0  0  0  0
   -5.5237    6.2336   -6.0278 O   0  0  0  0  0  0  0  0  0  0  0  0
   -5.6093    9.8007   -4.0511 C   0  0  0  0  0  0  0  0  0  0  0  0
   -6.0439   10.3503   -5.3931 C   0  0  0  0  0  0  0  0  0  0  0  0
   -4.8016   10.5803   -6.2159 C   0  0  0  0  0  0  0  0  0  0  0  0
   -5.1472   11.2369   -7.4837 N   0  0  0  0  0  0  0  0  0  0  0  0
   -5.9629   12.5150   -7.2024 C   0  0  0  0  0  0  0  0  0  0  0  0
   -7.1784   12.1791   -6.4073 C   0  0  0  0  0  0  0  0  0  0  0  0
   -6.7740   11.5451   -5.1786 O   0  0  0  0  0  0  0  0  0  0  0  0
   -5.0884    7.6952   -1.9058 O   0  0  0  0  0  0  0  0  0  0  0  0
   -2.2626    7.7961   -1.7407 C   0  0  0  0  0  0  0  0  0  0  0  0
   -1.4883    9.0993   -1.4006 C   0  0  0  0  0  0  0  0  0  0  0  0
   -0.7471    9.6017   -2.6212 C   0  0  0  0  0  0  0  0  0  0  0  0
   -0.7630    9.2241   -5.8842 O   0  0  0  0  0  0  0  0  0  0  0  0
   -1.8835   12.2398   -8.8312 C   0  0  0  0  0  0  0  0  0  0  0  0
   -1.7384   11.4175   -9.9361 C   0  0  0  0  0  0  0  0  0  0  0  0
   -2.7577   10.4734  -10.2213 C   0  0  0  0  0  0  0  0  0  0  0  0
   -3.8628   10.4122   -9.3817 C   0  0  0  0  0  0  0  0  0  0  0  0
   -4.0022   11.2976   -8.2897 C   0  0  0  0  0  0  0  0  0  0  0  0
   -2.9574   12.1919   -8.0289 C   0  0  0  0  0  0  0  0  0  0  0  0
   -8.9586    7.6949   -9.2697 F   0  0  0  0  0  0  0  0  0  0  0  0
  1  2  1  0  0  0  0
  2  3  1  0  0  0  0
  2  5  1  0  0  0  0
  3  4  1  0  0  0  0
  5  6  4  0  0  0  0
  5 10  4  0  0  0  0
  6  7  4  0  0  0  0
  7  8  4  0  0  0  0
  8  9  4  0  0  0  0
  9 10  4  0  0  0  0
 10 11  1  0  0  0  0
 11 12  4  0  0  0  0
 11 15  4  0  0  0  0
 12 13  1  0  0  0  0
 12 68  4  0  0  0  0
 13 14  1  0  0  0  0
 15 16  1  0  0  0  0
 15 67  4  0  0  0  0
 16 17  1  0  0  0  0
 17 18  1  0  0  0  0
 17 19  1  0  0  0  0
 17 20  1  0  0  0  0
 20 21  1  0  0  0  0
 21 22  1  0  0  0  0
 22 23  1  0  0  0  0
 22 66  2  0  0  0  0
 23 24  1  0  0  0  0
 23 65  1  0  0  0  0
 24 25  1  0  0  0  0
 25 26  1  0  0  0  0
 25 63  1  0  0  0  0
 26 27  1  0  0  0  0
 26 62  2  0  0  0  0
 27 28  1  0  0  0  0
 27 55  1  0  0  0  0
 28 29  1  0  0  0  0
 29 30  1  0  0  0  0
 29 54  2  0  0  0  0
 30 31  1  0  0  0  0
 30 34  1  0  0  0  0
 31 32  1  0  0  0  0
 31 33  1  0  0  0  0
 34 35  1  0  0  0  0
 34 53  1  0  0  0  0
 35 36  1  0  0  0  0
 35 52  2  0  0  0  0
 36 37  1  0  0  0  0
 36 51  1  0  0  0  0
 36 73  1  0  0  0  0
 37 38  1  0  0  0  0
 38 39  1  0  0  0  0
 39 40  1  0  0  0  0
 39 50  1  0  0  0  0
 40 41  1  0  0  0  0
 40 49  2  0  0  0  0
 41 42  1  0  0  0  0
 42 43  1  0  0  0  0
 43 44  1  0  0  0  0
 43 47  1  0  0  0  0
 43 48  1  0  0  0  0
 44 45  1  0  0  0  0
 44 46  1  0  0  0  0
 50 51  1  0  0  0  0
 55 56  1  0  0  0  0
 56 57  1  0  0  0  0
 56 61  1  0  0  0  0
 57 58  1  0  0  0  0
 58 59  1  0  0  0  0
 58 71  1  0  0  0  0
 59 60  1  0  0  0  0
 60 61  1  0  0  0  0
 63 64  1  0  0  0  0
 64 65  1  0  0  0  0
 67 68  4  0  0  0  0
 67 72  4  0  0  0  0
 68 69  4  0  0  0  0
 69 70  4  0  0  0  0
 70 71  4  0  0  0  0
 71 72  4  0  0  0  0
M  END
$$$$
