mol_ETKDG0_164
  PyMOL3.1          3D                             0

 73 79  0  0  0  0  0  0  0  0999 V2000
   -0.4255   16.4389  -11.6626 C   0  0  0  0  0  0  0  0  0  0  0  0
   -0.5576   14.9449  -11.5373 C   0  0  0  0  0  0  0  0  0  0  0  0
   -1.1476   14.3442  -12.6382 O   0  0  0  0  0  0  0  0  0  0  0  0
   -2.5731   14.4232  -12.7242 C   0  0  0  0  0  0  0  0  0  0  0  0
    0.7479   14.2764  -11.3015 C   0  0  0  0  0  0  0  0  0  0  0  0
    1.8651   14.8641  -11.7184 N   0  0  0  0  0  0  0  0  0  0  0  0
    3.0599   14.2653  -11.5380 C   0  0  0  0  0  0  0  0  0  0  0  0
    3.1581   13.0344  -10.8955 C   0  0  0  0  0  0  0  0  0  0  0  0
    2.0148   12.4351  -10.4689 C   0  0  0  0  0  0  0  0  0  0  0  0
    0.8102   13.0452  -10.6895 C   0  0  0  0  0  0  0  0  0  0  0  0
   -0.3940   12.4155  -10.2367 C   0  0  0  0  0  0  0  0  0  0  0  0
   -1.0564   11.4533  -10.9322 N   0  0  0  0  0  0  0  0  0  0  0  0
   -0.6688   10.8281  -12.2065 C   0  0  0  0  0  0  0  0  0  0  0  0
   -0.0857    9.4341  -11.9663 C   0  0  0  0  0  0  0  0  0  0  0  0
   -1.1086   12.7461   -9.0888 C   0  0  0  0  0  0  0  0  0  0  0  0
   -0.8257   13.7578   -8.0088 C   0  0  0  0  0  0  0  0  0  0  0  0
   -0.0254   13.2300   -6.7857 C   0  0  0  0  0  0  0  0  0  0  0  0
   -0.4847   13.9899   -5.5375 C   0  0  0  0  0  0  0  0  0  0  0  0
    1.4855   13.4685   -6.9789 C   0  0  0  0  0  0  0  0  0  0  0  0
   -0.1528   11.8254   -6.5671 C   0  0  0  0  0  0  0  0  0  0  0  0
   -0.7983   11.3364   -5.3474 O   0  0  0  0  0  0  0  0  0  0  0  0
   -1.0333    9.9653   -5.1223 C   0  0  0  0  0  0  0  0  0  0  0  0
   -1.7438    9.6808   -3.8473 C   0  0  0  0  0  0  0  0  0  0  0  0
   -2.4517    8.4181   -4.0122 N   0  0  0  0  0  0  0  0  0  0  0  0
   -3.1190    7.9937   -2.8928 N   0  0  0  0  0  0  0  0  0  0  0  0
   -4.4793    7.8873   -2.8870 C   0  0  0  0  0  0  0  0  0  0  0  0
   -5.1943    8.1804   -4.1760 C   0  0  0  0  0  0  0  0  0  0  0  0
   -6.3757    7.3602   -4.3719 N   0  0  0  0  0  0  0  0  0  0  0  0
   -6.4410    6.3857   -5.2830 C   0  0  0  0  0  0  0  0  0  0  0  0
   -7.8031    5.7802   -5.4395 C   0  0  0  0  0  0  0  0  0  0  0  0
   -7.8661    4.2834   -5.0040 C   0  0  0  0  0  0  0  0  0  0  0  0
   -9.2609    3.7253   -5.2365 C   0  0  0  0  0  0  0  0  0  0  0  0
   -7.5054    4.1537   -3.5157 C   0  0  0  0  0  0  0  0  0  0  0  0
   -8.2219    5.9066   -6.8121 N   0  0  0  0  0  0  0  0  0  0  0  0
   -9.2436    6.7541   -7.1075 C   0  0  0  0  0  0  0  0  0  0  0  0
   -9.8395    6.7113   -8.4908 C   0  0  0  0  0  0  0  0  0  0  0  0
  -11.0381    7.6144   -8.7214 C   0  0  0  0  0  0  0  0  0  0  0  0
  -11.5773    7.3733  -10.0963 C   0  0  0  0  0  0  0  0  0  0  0  0
  -11.7961    5.9295  -10.3439 N   0  0  0  0  0  0  0  0  0  0  0  0
  -12.9162    5.3609  -10.8224 C   0  0  0  0  0  0  0  0  0  0  0  0
  -13.9925    6.1582  -11.0770 C   0  0  0  0  0  0  0  0  0  0  0  0
  -14.9599    6.6795  -11.3528 C   0  0  0  0  0  0  0  0  0  0  0  0
  -16.1149    7.4976  -11.5912 C   0  0  0  0  0  0  0  0  0  0  0  0
  -17.2979    6.8331  -10.9985 N   0  0  0  0  0  0  0  0  0  0  0  0
  -17.2082    6.6781   -9.5267 C   0  0  0  0  0  0  0  0  0  0  0  0
  -17.6433    5.5417  -11.6489 C   0  0  0  0  0  0  0  0  0  0  0  0
  -15.9184    8.8933  -10.9425 C   0  0  0  0  0  0  0  0  0  0  0  0
  -16.2726    7.6458  -13.1102 C   0  0  0  0  0  0  0  0  0  0  0  0
  -12.9869    4.1558  -11.0223 O   0  0  0  0  0  0  0  0  0  0  0  0
  -10.7386    5.0365  -10.0504 C   0  0  0  0  0  0  0  0  0  0  0  0
  -10.3398    5.2949   -8.6675 C   0  0  0  0  0  0  0  0  0  0  0  0
   -9.6992    7.5217   -6.2499 O   0  0  0  0  0  0  0  0  0  0  0  0
   -7.4879    5.0855   -7.8113 C   0  0  0  0  0  0  0  0  0  0  0  0
   -5.4744    6.0486   -5.9462 O   0  0  0  0  0  0  0  0  0  0  0  0
   -5.6396    9.6655   -4.1172 C   0  0  0  0  0  0  0  0  0  0  0  0
   -6.1299   10.1249   -5.4628 C   0  0  0  0  0  0  0  0  0  0  0  0
   -4.9322   10.3712   -6.3323 C   0  0  0  0  0  0  0  0  0  0  0  0
   -5.3718   10.9234   -7.6224 N   0  0  0  0  0  0  0  0  0  0  0  0
   -6.2401   12.1637   -7.4012 C   0  0  0  0  0  0  0  0  0  0  0  0
   -7.4133   11.8122   -6.5384 C   0  0  0  0  0  0  0  0  0  0  0  0
   -6.9268   11.2965   -5.2932 O   0  0  0  0  0  0  0  0  0  0  0  0
   -5.1108    7.6498   -1.8837 O   0  0  0  0  0  0  0  0  0  0  0  0
   -2.2725    7.7862   -1.7080 C   0  0  0  0  0  0  0  0  0  0  0  0
   -1.5099    9.0873   -1.4235 C   0  0  0  0  0  0  0  0  0  0  0  0
   -0.7676    9.5616   -2.6625 C   0  0  0  0  0  0  0  0  0  0  0  0
   -0.7399    8.9870   -5.8566 O   0  0  0  0  0  0  0  0  0  0  0  0
   -2.2092   11.9351   -9.1250 C   0  0  0  0  0  0  0  0  0  0  0  0
   -2.1511   11.1341  -10.2607 C   0  0  0  0  0  0  0  0  0  0  0  0
   -3.1900   10.2041  -10.5134 C   0  0  0  0  0  0  0  0  0  0  0  0
   -4.2405   10.1386   -9.6021 C   0  0  0  0  0  0  0  0  0  0  0  0
   -4.2845   10.9906   -8.4899 C   0  0  0  0  0  0  0  0  0  0  0  0
   -3.2339   11.8755   -8.2489 C   0  0  0  0  0  0  0  0  0  0  0  0
   -8.8635    7.0533   -9.4180 F   0  0  0  0  0  0  0  0  0  0  0  0
  1  2  1  0  0  0  0
  2  3  1  0  0  0  0
  2  5  1  0  0  0  0
  3  4  1  0  0  0  0
  5  6  4  0  0  0  0
  5 10  4  0  0  0  0
  6  7  4  0  0  0  0
  7  8  4  0  0  0  0
  8  9  4  0  0  0  0
  9 10  4  0  0  0  0
 10 11  1  0  0  0  0
 11 12  4  0  0  0  0
 11 15  4  0  0  0  0
 12 13  1  0  0  0  0
 12 68  4  0  0  0  0
 13 14  1  0  0  0  0
 15 16  1  0  0  0  0
 15 67  4  0  0  0  0
 16 17  1  0  0  0  0
 17 18  1  0  0  0  0
 17 19  1  0  0  0  0
 17 20  1  0  0  0  0
 20 21  1  0  0  0  0
 21 22  1  0  0  0  0
 22 23  1  0  0  0  0
 22 66  2  0  0  0  0
 23 24  1  0  0  0  0
 23 65  1  0  0  0  0
 24 25  1  0  0  0  0
 25 26  1  0  0  0  0
 25 63  1  0  0  0  0
 26 27  1  0  0  0  0
 26 62  2  0  0  0  0
 27 28  1  0  0  0  0
 27 55  1  0  0  0  0
 28 29  1  0  0  0  0
 29 30  1  0  0  0  0
 29 54  2  0  0  0  0
 30 31  1  0  0  0  0
 30 34  1  0  0  0  0
 31 32  1  0  0  0  0
 31 33  1  0  0  0  0
 34 35  1  0  0  0  0
 34 53  1  0  0  0  0
 35 36  1  0  0  0  0
 35 52  2  0  0  0  0
 36 37  1  0  0  0  0
 36 51  1  0  0  0  0
 36 73  1  0  0  0  0
 37 38  1  0  0  0  0
 38 39  1  0  0  0  0
 39 40  1  0  0  0  0
 39 50  1  0  0  0  0
 40 41  1  0  0  0  0
 40 49  2  0  0  0  0
 41 42  1  0  0  0  0
 42 43  1  0  0  0  0
 43 44  1  0  0  0  0
 43 47  1  0  0  0  0
 43 48  1  0  0  0  0
 44 45  1  0  0  0  0
 44 46  1  0  0  0  0
 50 51  1  0  0  0  0
 55 56  1  0  0  0  0
 56 57  1  0  0  0  0
 56 61  1  0  0  0  0
 57 58  1  0  0  0  0
 58 59  1  0  0  0  0
 58 71  1  0  0  0  0
 59 60  1  0  0  0  0
 60 61  1  0  0  0  0
 63 64  1  0  0  0  0
 64 65  1  0  0  0  0
 67 68  4  0  0  0  0
 67 72  4  0  0  0  0
 68 69  4  0  0  0  0
 69 70  4  0  0  0  0
 70 71  4  0  0  0  0
 71 72  4  0  0  0  0
M  END
$$$$
