mol_bioactive_6
  PyMOL3.1          3D                             0

 73 79  0  0  0  0  0  0  0  0999 V2000
    0.0248   15.3536  -12.6295 C   0  0  0  0  0  0  0  0  0  0  0  0
    0.0670   15.2446  -11.1154 C   0  0  0  0  0  0  0  0  0  0  0  0
    0.0067   16.4764  -10.4495 O   0  0  0  0  0  0  0  0  0  0  0  0
   -1.2693   16.9344  -10.0197 C   0  0  0  0  0  0  0  0  0  0  0  0
    1.2969   14.5676  -10.6692 C   0  0  0  0  0  0  0  0  0  0  0  0
    2.4528   15.1407  -10.9546 N   0  0  0  0  0  0  0  0  0  0  0  0
    3.6036   14.5616  -10.5844 C   0  0  0  0  0  0  0  0  0  0  0  0
    3.6078   13.3369   -9.9088 C   0  0  0  0  0  0  0  0  0  0  0  0
    2.4201   12.7446   -9.6262 C   0  0  0  0  0  0  0  0  0  0  0  0
    1.2597   13.3556  -10.0029 C   0  0  0  0  0  0  0  0  0  0  0  0
    0.0044   12.7415   -9.6606 C   0  0  0  0  0  0  0  0  0  0  0  0
   -0.5832   11.7584  -10.3878 N   0  0  0  0  0  0  0  0  0  0  0  0
   -0.0756   11.1180  -11.6018 C   0  0  0  0  0  0  0  0  0  0  0  0
    0.5168    9.7492  -11.2641 C   0  0  0  0  0  0  0  0  0  0  0  0
   -0.8122   13.0769   -8.6032 C   0  0  0  0  0  0  0  0  0  0  0  0
   -0.6294   14.0779   -7.5328 C   0  0  0  0  0  0  0  0  0  0  0  0
    0.0910   13.5508   -6.2687 C   0  0  0  0  0  0  0  0  0  0  0  0
   -0.5420   14.2055   -5.0459 C   0  0  0  0  0  0  0  0  0  0  0  0
    1.5811   13.9375   -6.3086 C   0  0  0  0  0  0  0  0  0  0  0  0
    0.0672   12.1102   -6.1293 C   0  0  0  0  0  0  0  0  0  0  0  0
   -0.6671   11.5240   -5.0324 O   0  0  0  0  0  0  0  0  0  0  0  0
   -0.9420   10.1482   -4.9526 C   0  0  0  0  0  0  0  0  0  0  0  0
   -1.6859    9.7860   -3.7166 C   0  0  0  0  0  0  0  0  0  0  0  0
   -2.4071    8.5476   -3.9560 N   0  0  0  0  0  0  0  0  0  0  0  0
   -3.0901    8.0767   -2.8602 N   0  0  0  0  0  0  0  0  0  0  0  0
   -4.4495    7.9937   -2.8574 C   0  0  0  0  0  0  0  0  0  0  0  0
   -5.1779    8.4154   -4.1069 C   0  0  0  0  0  0  0  0  0  0  0  0
   -6.3502    7.5899   -4.3738 N   0  0  0  0  0  0  0  0  0  0  0  0
   -6.3836    6.5691   -5.2395 C   0  0  0  0  0  0  0  0  0  0  0  0
   -7.7437    5.9683   -5.4237 C   0  0  0  0  0  0  0  0  0  0  0  0
   -7.8382    4.4592   -5.0567 C   0  0  0  0  0  0  0  0  0  0  0  0
   -9.2421    3.9408   -5.3383 C   0  0  0  0  0  0  0  0  0  0  0  0
   -7.4967    4.2562   -3.5781 C   0  0  0  0  0  0  0  0  0  0  0  0
   -8.1540    6.2106   -6.7786 N   0  0  0  0  0  0  0  0  0  0  0  0
   -9.0438    7.2074   -7.0075 C   0  0  0  0  0  0  0  0  0  0  0  0
   -9.6160    7.3769   -8.3813 C   0  0  0  0  0  0  0  0  0  0  0  0
  -10.5677    8.5445   -8.4950 C   0  0  0  0  0  0  0  0  0  0  0  0
  -11.1167    8.5759   -9.8632 C   0  0  0  0  0  0  0  0  0  0  0  0
  -11.6911    7.2611  -10.1898 N   0  0  0  0  0  0  0  0  0  0  0  0
  -12.9565    7.0650  -10.5487 C   0  0  0  0  0  0  0  0  0  0  0  0
  -13.8359    8.1356  -10.4960 C   0  0  0  0  0  0  0  0  0  0  0  0
  -14.6826    8.8935  -10.5035 C   0  0  0  0  0  0  0  0  0  0  0  0
  -15.6743    9.9032  -10.4458 C   0  0  0  0  0  0  0  0  0  0  0  0
  -16.1834   10.0556   -9.0819 N   0  0  0  0  0  0  0  0  0  0  0  0
  -16.1513    8.8775   -8.2358 C   0  0  0  0  0  0  0  0  0  0  0  0
  -15.9069   11.2760   -8.3892 C   0  0  0  0  0  0  0  0  0  0  0  0
  -16.8539    9.4866  -11.3348 C   0  0  0  0  0  0  0  0  0  0  0  0
  -15.0486   11.2050  -10.9626 C   0  0  0  0  0  0  0  0  0  0  0  0
  -13.3436    5.9564  -10.8879 O   0  0  0  0  0  0  0  0  0  0  0  0
  -10.8629    6.1074  -10.0605 C   0  0  0  0  0  0  0  0  0  0  0  0
  -10.3858    6.1054   -8.6691 C   0  0  0  0  0  0  0  0  0  0  0  0
   -9.4055    7.9561   -6.0883 O   0  0  0  0  0  0  0  0  0  0  0  0
   -7.5379    5.3593   -7.8311 C   0  0  0  0  0  0  0  0  0  0  0  0
   -5.4005    6.2120   -5.8720 O   0  0  0  0  0  0  0  0  0  0  0  0
   -5.6108    9.8910   -3.8851 C   0  0  0  0  0  0  0  0  0  0  0  0
   -5.6979   10.7800   -5.0891 C   0  0  0  0  0  0  0  0  0  0  0  0
   -4.9857   10.2762   -6.3263 C   0  0  0  0  0  0  0  0  0  0  0  0
   -5.2242   11.1473   -7.4664 N   0  0  0  0  0  0  0  0  0  0  0  0
   -6.0349   12.3890   -7.1816 C   0  0  0  0  0  0  0  0  0  0  0  0
   -7.2294   12.0605   -6.3964 C   0  0  0  0  0  0  0  0  0  0  0  0
   -7.0628   11.0231   -5.4217 O   0  0  0  0  0  0  0  0  0  0  0  0
   -5.0845    7.6997   -1.8705 O   0  0  0  0  0  0  0  0  0  0  0  0
   -2.2679    7.8188   -1.6837 C   0  0  0  0  0  0  0  0  0  0  0  0
   -1.4887    9.1088   -1.3396 C   0  0  0  0  0  0  0  0  0  0  0  0
   -0.7343    9.6035   -2.5365 C   0  0  0  0  0  0  0  0  0  0  0  0
   -0.6575    9.2350   -5.7643 O   0  0  0  0  0  0  0  0  0  0  0  0
   -1.9034   12.2471   -8.7114 C   0  0  0  0  0  0  0  0  0  0  0  0
   -1.7340   11.4323   -9.8105 C   0  0  0  0  0  0  0  0  0  0  0  0
   -2.7338   10.4771  -10.1212 C   0  0  0  0  0  0  0  0  0  0  0  0
   -3.8546   10.3948   -9.3036 C   0  0  0  0  0  0  0  0  0  0  0  0
   -4.0220   11.2605   -8.2188 C   0  0  0  0  0  0  0  0  0  0  0  0
   -2.9983   12.1816   -7.9236 C   0  0  0  0  0  0  0  0  0  0  0  0
   -8.5795    7.5774   -9.2861 F   0  0  0  0  0  0  0  0  0  0  0  0
  1  2  1  0  0  0  0
  2  3  1  0  0  0  0
  2  5  1  0  0  0  0
  3  4  1  0  0  0  0
  5  6  4  0  0  0  0
  5 10  4  0  0  0  0
  6  7  4  0  0  0  0
  7  8  4  0  0  0  0
  8  9  4  0  0  0  0
  9 10  4  0  0  0  0
 10 11  1  0  0  0  0
 11 12  4  0  0  0  0
 11 15  4  0  0  0  0
 12 13  1  0  0  0  0
 12 68  4  0  0  0  0
 13 14  1  0  0  0  0
 15 16  1  0  0  0  0
 15 67  4  0  0  0  0
 16 17  1  0  0  0  0
 17 18  1  0  0  0  0
 17 19  1  0  0  0  0
 17 20  1  0  0  0  0
 20 21  1  0  0  0  0
 21 22  1  0  0  0  0
 22 23  1  0  0  0  0
 22 66  2  0  0  0  0
 23 24  1  0  0  0  0
 23 65  1  0  0  0  0
 24 25  1  0  0  0  0
 25 26  1  0  0  0  0
 25 63  1  0  0  0  0
 26 27  1  0  0  0  0
 26 62  2  0  0  0  0
 27 28  1  0  0  0  0
 27 55  1  0  0  0  0
 28 29  1  0  0  0  0
 29 30  1  0  0  0  0
 29 54  2  0  0  0  0
 30 31  1  0  0  0  0
 30 34  1  0  0  0  0
 31 32  1  0  0  0  0
 31 33  1  0  0  0  0
 34 35  1  0  0  0  0
 34 53  1  0  0  0  0
 35 36  1  0  0  0  0
 35 52  2  0  0  0  0
 36 37  1  0  0  0  0
 36 51  1  0  0  0  0
 36 73  1  0  0  0  0
 37 38  1  0  0  0  0
 38 39  1  0  0  0  0
 39 40  1  0  0  0  0
 39 50  1  0  0  0  0
 40 41  1  0  0  0  0
 40 49  2  0  0  0  0
 41 42  1  0  0  0  0
 42 43  1  0  0  0  0
 43 44  1  0  0  0  0
 43 47  1  0  0  0  0
 43 48  1  0  0  0  0
 44 45  1  0  0  0  0
 44 46  1  0  0  0  0
 50 51  1  0  0  0  0
 55 56  1  0  0  0  0
 56 57  1  0  0  0  0
 56 61  1  0  0  0  0
 57 58  1  0  0  0  0
 58 59  1  0  0  0  0
 58 71  1  0  0  0  0
 59 60  1  0  0  0  0
 60 61  1  0  0  0  0
 63 64  1  0  0  0  0
 64 65  1  0  0  0  0
 67 68  4  0  0  0  0
 67 72  4  0  0  0  0
 68 69  4  0  0  0  0
 69 70  4  0  0  0  0
 70 71  4  0  0  0  0
 71 72  4  0  0  0  0
M  END
$$$$
