mol_ETKDG5_133
  PyMOL3.1          3D                             0

 73 79  0  0  0  0  0  0  0  0999 V2000
    0.2475   17.2324  -10.7714 C   0  0  0  0  0  0  0  0  0  0  0  0
    0.0146   15.7480  -10.6139 C   0  0  0  0  0  0  0  0  0  0  0  0
   -0.5962   15.1928  -11.7482 O   0  0  0  0  0  0  0  0  0  0  0  0
   -2.0015   15.3385  -11.8552 C   0  0  0  0  0  0  0  0  0  0  0  0
    1.2667   14.9946  -10.3793 C   0  0  0  0  0  0  0  0  0  0  0  0
    2.4266   15.5795  -10.6488 N   0  0  0  0  0  0  0  0  0  0  0  0
    3.5841   14.9249  -10.4705 C   0  0  0  0  0  0  0  0  0  0  0  0
    3.6036   13.6243   -9.9765 C   0  0  0  0  0  0  0  0  0  0  0  0
    2.4211   13.0203   -9.7019 C   0  0  0  0  0  0  0  0  0  0  0  0
    1.2484   13.6936   -9.9194 C   0  0  0  0  0  0  0  0  0  0  0  0
   -0.0066   13.0344   -9.6201 C   0  0  0  0  0  0  0  0  0  0  0  0
   -0.6020   12.1051  -10.4224 N   0  0  0  0  0  0  0  0  0  0  0  0
   -0.1017   11.5645  -11.6854 C   0  0  0  0  0  0  0  0  0  0  0  0
    0.4777   10.1620  -11.4410 C   0  0  0  0  0  0  0  0  0  0  0  0
   -0.8216   13.2784   -8.5246 C   0  0  0  0  0  0  0  0  0  0  0  0
   -0.6454   14.2000   -7.3758 C   0  0  0  0  0  0  0  0  0  0  0  0
    0.1016   13.5819   -6.1564 C   0  0  0  0  0  0  0  0  0  0  0  0
   -0.4648   14.2017   -4.8760 C   0  0  0  0  0  0  0  0  0  0  0  0
    1.6072   13.9298   -6.2321 C   0  0  0  0  0  0  0  0  0  0  0  0
    0.0408   12.1409   -6.0852 C   0  0  0  0  0  0  0  0  0  0  0  0
   -0.6826   11.5204   -5.0045 O   0  0  0  0  0  0  0  0  0  0  0  0
   -1.0047   10.1530   -4.9835 C   0  0  0  0  0  0  0  0  0  0  0  0
   -1.7417    9.7613   -3.7520 C   0  0  0  0  0  0  0  0  0  0  0  0
   -2.4327    8.5066   -3.9972 N   0  0  0  0  0  0  0  0  0  0  0  0
   -3.1118    8.0311   -2.8928 N   0  0  0  0  0  0  0  0  0  0  0  0
   -4.4719    7.9404   -2.8795 C   0  0  0  0  0  0  0  0  0  0  0  0
   -5.1902    8.2817   -4.1587 C   0  0  0  0  0  0  0  0  0  0  0  0
   -6.3786    7.4825   -4.3594 N   0  0  0  0  0  0  0  0  0  0  0  0
   -6.4740    6.5040   -5.2748 C   0  0  0  0  0  0  0  0  0  0  0  0
   -7.8419    5.9091   -5.3912 C   0  0  0  0  0  0  0  0  0  0  0  0
   -7.8907    4.3937   -5.0145 C   0  0  0  0  0  0  0  0  0  0  0  0
   -9.2938    3.8434   -5.2318 C   0  0  0  0  0  0  0  0  0  0  0  0
   -7.4969    4.2144   -3.5377 C   0  0  0  0  0  0  0  0  0  0  0  0
   -8.3631    6.1397   -6.7169 N   0  0  0  0  0  0  0  0  0  0  0  0
   -9.2720    7.1321   -6.8810 C   0  0  0  0  0  0  0  0  0  0  0  0
  -10.0842    7.1973   -8.1472 C   0  0  0  0  0  0  0  0  0  0  0  0
  -11.0153    8.3964   -8.2066 C   0  0  0  0  0  0  0  0  0  0  0  0
  -11.8627    8.3009   -9.4251 C   0  0  0  0  0  0  0  0  0  0  0  0
  -12.5443    6.9904   -9.4481 N   0  0  0  0  0  0  0  0  0  0  0  0
  -13.8827    6.8106   -9.4818 C   0  0  0  0  0  0  0  0  0  0  0  0
  -14.7164    7.9237   -9.5375 C   0  0  0  0  0  0  0  0  0  0  0  0
  -15.4920    8.7615   -9.6277 C   0  0  0  0  0  0  0  0  0  0  0  0
  -16.3841    9.8894   -9.6754 C   0  0  0  0  0  0  0  0  0  0  0  0
  -15.6863   11.0978   -9.2101 N   0  0  0  0  0  0  0  0  0  0  0  0
  -15.1636   10.9918   -7.8408 C   0  0  0  0  0  0  0  0  0  0  0  0
  -14.6734   11.6104  -10.1590 C   0  0  0  0  0  0  0  0  0  0  0  0
  -17.5889    9.6253   -8.7674 C   0  0  0  0  0  0  0  0  0  0  0  0
  -16.8520   10.0700  -11.1181 C   0  0  0  0  0  0  0  0  0  0  0  0
  -14.3625    5.6817   -9.4591 O   0  0  0  0  0  0  0  0  0  0  0  0
  -11.7232    5.8126   -9.3820 C   0  0  0  0  0  0  0  0  0  0  0  0
  -10.9356    5.9266   -8.1460 C   0  0  0  0  0  0  0  0  0  0  0  0
   -9.4929    7.9421   -5.9658 O   0  0  0  0  0  0  0  0  0  0  0  0
   -7.8582    5.2533   -7.8141 C   0  0  0  0  0  0  0  0  0  0  0  0
   -5.5330    6.1504   -5.9807 O   0  0  0  0  0  0  0  0  0  0  0  0
   -5.6233    9.7704   -4.0488 C   0  0  0  0  0  0  0  0  0  0  0  0
   -6.0596   10.3137   -5.3875 C   0  0  0  0  0  0  0  0  0  0  0  0
   -4.8129   10.6076   -6.1886 C   0  0  0  0  0  0  0  0  0  0  0  0
   -5.1694   11.2846   -7.4488 N   0  0  0  0  0  0  0  0  0  0  0  0
   -6.0340   12.5102   -7.1728 C   0  0  0  0  0  0  0  0  0  0  0  0
   -7.2612   12.1052   -6.3997 C   0  0  0  0  0  0  0  0  0  0  0  0
   -6.8472   11.4753   -5.1746 O   0  0  0  0  0  0  0  0  0  0  0  0
   -5.1018    7.6787   -1.8847 O   0  0  0  0  0  0  0  0  0  0  0  0
   -2.2775    7.7640   -1.7269 C   0  0  0  0  0  0  0  0  0  0  0  0
   -1.5255    9.0727   -1.3664 C   0  0  0  0  0  0  0  0  0  0  0  0
   -0.7816    9.5896   -2.5740 C   0  0  0  0  0  0  0  0  0  0  0  0
   -0.7611    9.2707   -5.8473 O   0  0  0  0  0  0  0  0  0  0  0  0
   -1.9076   12.4493   -8.6912 C   0  0  0  0  0  0  0  0  0  0  0  0
   -1.7456   11.7269   -9.8580 C   0  0  0  0  0  0  0  0  0  0  0  0
   -2.7568   10.7925  -10.2359 C   0  0  0  0  0  0  0  0  0  0  0  0
   -3.8642   10.6507   -9.4131 C   0  0  0  0  0  0  0  0  0  0  0  0
   -4.0179   11.4300   -8.2476 C   0  0  0  0  0  0  0  0  0  0  0  0
   -2.9907   12.3171   -7.8949 C   0  0  0  0  0  0  0  0  0  0  0  0
   -9.2381    7.2652   -9.2473 F   0  0  0  0  0  0  0  0  0  0  0  0
  1  2  1  0  0  0  0
  2  3  1  0  0  0  0
  2  5  1  0  0  0  0
  3  4  1  0  0  0  0
  5  6  4  0  0  0  0
  5 10  4  0  0  0  0
  6  7  4  0  0  0  0
  7  8  4  0  0  0  0
  8  9  4  0  0  0  0
  9 10  4  0  0  0  0
 10 11  1  0  0  0  0
 11 12  4  0  0  0  0
 11 15  4  0  0  0  0
 12 13  1  0  0  0  0
 12 68  4  0  0  0  0
 13 14  1  0  0  0  0
 15 16  1  0  0  0  0
 15 67  4  0  0  0  0
 16 17  1  0  0  0  0
 17 18  1  0  0  0  0
 17 19  1  0  0  0  0
 17 20  1  0  0  0  0
 20 21  1  0  0  0  0
 21 22  1  0  0  0  0
 22 23  1  0  0  0  0
 22 66  2  0  0  0  0
 23 24  1  0  0  0  0
 23 65  1  0  0  0  0
 24 25  1  0  0  0  0
 25 26  1  0  0  0  0
 25 63  1  0  0  0  0
 26 27  1  0  0  0  0
 26 62  2  0  0  0  0
 27 28  1  0  0  0  0
 27 55  1  0  0  0  0
 28 29  1  0  0  0  0
 29 30  1  0  0  0  0
 29 54  2  0  0  0  0
 30 31  1  0  0  0  0
 30 34  1  0  0  0  0
 31 32  1  0  0  0  0
 31 33  1  0  0  0  0
 34 35  1  0  0  0  0
 34 53  1  0  0  0  0
 35 36  1  0  0  0  0
 35 52  2  0  0  0  0
 36 37  1  0  0  0  0
 36 51  1  0  0  0  0
 36 73  1  0  0  0  0
 37 38  1  0  0  0  0
 38 39  1  0  0  0  0
 39 40  1  0  0  0  0
 39 50  1  0  0  0  0
 40 41  1  0  0  0  0
 40 49  2  0  0  0  0
 41 42  1  0  0  0  0
 42 43  1  0  0  0  0
 43 44  1  0  0  0  0
 43 47  1  0  0  0  0
 43 48  1  0  0  0  0
 44 45  1  0  0  0  0
 44 46  1  0  0  0  0
 50 51  1  0  0  0  0
 55 56  1  0  0  0  0
 56 57  1  0  0  0  0
 56 61  1  0  0  0  0
 57 58  1  0  0  0  0
 58 59  1  0  0  0  0
 58 71  1  0  0  0  0
 59 60  1  0  0  0  0
 60 61  1  0  0  0  0
 63 64  1  0  0  0  0
 64 65  1  0  0  0  0
 67 68  4  0  0  0  0
 67 72  4  0  0  0  0
 68 69  4  0  0  0  0
 69 70  4  0  0  0  0
 70 71  4  0  0  0  0
 71 72  4  0  0  0  0
M  END
$$$$
