mol_bioactive_11
  PyMOL3.1          3D                             0

 73 79  0  0  0  0  0  0  0  0999 V2000
   -0.1791   16.3857  -10.9291 C   0  0  0  0  0  0  0  0  0  0  0  0
    0.3785   15.2315  -11.7530 C   0  0  0  0  0  0  0  0  0  0  0  0
   -0.5133   14.3114  -12.2111 O   0  0  0  0  0  0  0  0  0  0  0  0
   -1.5961   14.5856  -13.0210 C   0  0  0  0  0  0  0  0  0  0  0  0
    1.4216   14.4660  -11.0468 C   0  0  0  0  0  0  0  0  0  0  0  0
    2.5920   15.0127  -11.2465 N   0  0  0  0  0  0  0  0  0  0  0  0
    3.6968   14.4365  -10.8269 C   0  0  0  0  0  0  0  0  0  0  0  0
    3.6553   13.2403  -10.1442 C   0  0  0  0  0  0  0  0  0  0  0  0
    2.4617   12.6585   -9.8927 C   0  0  0  0  0  0  0  0  0  0  0  0
    1.3204   13.2500  -10.3246 C   0  0  0  0  0  0  0  0  0  0  0  0
    0.0591   12.6163   -9.9922 C   0  0  0  0  0  0  0  0  0  0  0  0
   -0.5262   11.6211  -10.7275 N   0  0  0  0  0  0  0  0  0  0  0  0
   -0.0223   10.9905  -11.9520 C   0  0  0  0  0  0  0  0  0  0  0  0
    0.5381    9.5955  -11.6539 C   0  0  0  0  0  0  0  0  0  0  0  0
   -0.7559   12.9209   -8.9128 C   0  0  0  0  0  0  0  0  0  0  0  0
   -0.5851   13.9153   -7.8192 C   0  0  0  0  0  0  0  0  0  0  0  0
    0.1675   13.4009   -6.5533 C   0  0  0  0  0  0  0  0  0  0  0  0
   -0.4237   14.0935   -5.3253 C   0  0  0  0  0  0  0  0  0  0  0  0
    1.6649   13.7689   -6.6396 C   0  0  0  0  0  0  0  0  0  0  0  0
    0.1281   11.9771   -6.3808 C   0  0  0  0  0  0  0  0  0  0  0  0
   -0.5665   11.4169   -5.2367 O   0  0  0  0  0  0  0  0  0  0  0  0
   -0.8425   10.0417   -5.1079 C   0  0  0  0  0  0  0  0  0  0  0  0
   -1.5747    9.7069   -3.8489 C   0  0  0  0  0  0  0  0  0  0  0  0
   -2.3223    8.4754   -4.0599 N   0  0  0  0  0  0  0  0  0  0  0  0
   -3.0151    8.0431   -2.9483 N   0  0  0  0  0  0  0  0  0  0  0  0
   -4.3804    7.9812   -2.9500 C   0  0  0  0  0  0  0  0  0  0  0  0
   -5.0939    8.3796   -4.2210 C   0  0  0  0  0  0  0  0  0  0  0  0
   -6.2924    7.5806   -4.4601 N   0  0  0  0  0  0  0  0  0  0  0  0
   -6.3584    6.5464   -5.3096 C   0  0  0  0  0  0  0  0  0  0  0  0
   -7.7195    5.9474   -5.4698 C   0  0  0  0  0  0  0  0  0  0  0  0
   -7.8008    4.4392   -5.0694 C   0  0  0  0  0  0  0  0  0  0  0  0
   -9.2164    3.9194   -5.3091 C   0  0  0  0  0  0  0  0  0  0  0  0
   -7.4333    4.2628   -3.5914 C   0  0  0  0  0  0  0  0  0  0  0  0
   -8.1529    6.1361   -6.8268 N   0  0  0  0  0  0  0  0  0  0  0  0
   -9.1662    7.0109   -7.0644 C   0  0  0  0  0  0  0  0  0  0  0  0
   -9.7777    7.0799   -8.4403 C   0  0  0  0  0  0  0  0  0  0  0  0
  -11.0760    7.8711   -8.4926 C   0  0  0  0  0  0  0  0  0  0  0  0
  -11.7030    7.7404   -9.8542 C   0  0  0  0  0  0  0  0  0  0  0  0
  -11.7511    6.3181  -10.2594 N   0  0  0  0  0  0  0  0  0  0  0  0
  -12.8290    5.5830  -10.6107 C   0  0  0  0  0  0  0  0  0  0  0  0
  -14.0819    6.1630  -10.6532 C   0  0  0  0  0  0  0  0  0  0  0  0
  -15.1612    6.5343  -10.7824 C   0  0  0  0  0  0  0  0  0  0  0  0
  -16.4790    7.0776  -10.8610 C   0  0  0  0  0  0  0  0  0  0  0  0
  -16.4411    8.4820  -10.4180 N   0  0  0  0  0  0  0  0  0  0  0  0
  -15.9698    8.6537   -9.0293 C   0  0  0  0  0  0  0  0  0  0  0  0
  -15.7322    9.3828  -11.3378 C   0  0  0  0  0  0  0  0  0  0  0  0
  -17.4121    6.2751   -9.9448 C   0  0  0  0  0  0  0  0  0  0  0  0
  -16.9438    6.9851  -12.3159 C   0  0  0  0  0  0  0  0  0  0  0  0
  -12.7148    4.3902  -10.8935 O   0  0  0  0  0  0  0  0  0  0  0  0
  -10.5547    5.5863  -10.2136 C   0  0  0  0  0  0  0  0  0  0  0  0
  -10.1322    5.6621   -8.8078 C   0  0  0  0  0  0  0  0  0  0  0  0
   -9.6027    7.7292   -6.1604 O   0  0  0  0  0  0  0  0  0  0  0  0
   -7.4336    5.3559   -7.8716 C   0  0  0  0  0  0  0  0  0  0  0  0
   -5.3825    6.1639   -5.9469 O   0  0  0  0  0  0  0  0  0  0  0  0
   -5.4751    9.8765   -4.0770 C   0  0  0  0  0  0  0  0  0  0  0  0
   -5.5618   10.7027   -5.3342 C   0  0  0  0  0  0  0  0  0  0  0  0
   -4.9686   10.0915   -6.5965 C   0  0  0  0  0  0  0  0  0  0  0  0
   -5.1731   10.9756   -7.7546 N   0  0  0  0  0  0  0  0  0  0  0  0
   -5.9624   12.2417   -7.4730 C   0  0  0  0  0  0  0  0  0  0  0  0
   -7.1308   11.9765   -6.6312 C   0  0  0  0  0  0  0  0  0  0  0  0
   -6.9247   11.0269   -5.5828 O   0  0  0  0  0  0  0  0  0  0  0  0
   -5.0215    7.7212   -1.9554 O   0  0  0  0  0  0  0  0  0  0  0  0
   -2.1901    7.7892   -1.7665 C   0  0  0  0  0  0  0  0  0  0  0  0
   -1.3701    9.0679   -1.4565 C   0  0  0  0  0  0  0  0  0  0  0  0
   -0.6134    9.5221   -2.6760 C   0  0  0  0  0  0  0  0  0  0  0  0
   -0.5615    9.1115   -5.9032 O   0  0  0  0  0  0  0  0  0  0  0  0
   -1.8384   12.0791   -9.0292 C   0  0  0  0  0  0  0  0  0  0  0  0
   -1.6693   11.2766  -10.1439 C   0  0  0  0  0  0  0  0  0  0  0  0
   -2.6739   10.3190  -10.4561 C   0  0  0  0  0  0  0  0  0  0  0  0
   -3.7919   10.2226   -9.6228 C   0  0  0  0  0  0  0  0  0  0  0  0
   -3.9622   11.0809   -8.5204 C   0  0  0  0  0  0  0  0  0  0  0  0
   -2.9297   11.9976   -8.2307 C   0  0  0  0  0  0  0  0  0  0  0  0
   -8.8516    7.6362   -9.3117 F   0  0  0  0  0  0  0  0  0  0  0  0
  1  2  1  0  0  0  0
  2  3  1  0  0  0  0
  2  5  1  0  0  0  0
  3  4  1  0  0  0  0
  5  6  4  0  0  0  0
  5 10  4  0  0  0  0
  6  7  4  0  0  0  0
  7  8  4  0  0  0  0
  8  9  4  0  0  0  0
  9 10  4  0  0  0  0
 10 11  1  0  0  0  0
 11 12  4  0  0  0  0
 11 15  4  0  0  0  0
 12 13  1  0  0  0  0
 12 68  4  0  0  0  0
 13 14  1  0  0  0  0
 15 16  1  0  0  0  0
 15 67  4  0  0  0  0
 16 17  1  0  0  0  0
 17 18  1  0  0  0  0
 17 19  1  0  0  0  0
 17 20  1  0  0  0  0
 20 21  1  0  0  0  0
 21 22  1  0  0  0  0
 22 23  1  0  0  0  0
 22 66  2  0  0  0  0
 23 24  1  0  0  0  0
 23 65  1  0  0  0  0
 24 25  1  0  0  0  0
 25 26  1  0  0  0  0
 25 63  1  0  0  0  0
 26 27  1  0  0  0  0
 26 62  2  0  0  0  0
 27 28  1  0  0  0  0
 27 55  1  0  0  0  0
 28 29  1  0  0  0  0
 29 30  1  0  0  0  0
 29 54  2  0  0  0  0
 30 31  1  0  0  0  0
 30 34  1  0  0  0  0
 31 32  1  0  0  0  0
 31 33  1  0  0  0  0
 34 35  1  0  0  0  0
 34 53  1  0  0  0  0
 35 36  1  0  0  0  0
 35 52  2  0  0  0  0
 36 37  1  0  0  0  0
 36 51  1  0  0  0  0
 36 73  1  0  0  0  0
 37 38  1  0  0  0  0
 38 39  1  0  0  0  0
 39 40  1  0  0  0  0
 39 50  1  0  0  0  0
 40 41  1  0  0  0  0
 40 49  2  0  0  0  0
 41 42  1  0  0  0  0
 42 43  1  0  0  0  0
 43 44  1  0  0  0  0
 43 47  1  0  0  0  0
 43 48  1  0  0  0  0
 44 45  1  0  0  0  0
 44 46  1  0  0  0  0
 50 51  1  0  0  0  0
 55 56  1  0  0  0  0
 56 57  1  0  0  0  0
 56 61  1  0  0  0  0
 57 58  1  0  0  0  0
 58 59  1  0  0  0  0
 58 71  1  0  0  0  0
 59 60  1  0  0  0  0
 60 61  1  0  0  0  0
 63 64  1  0  0  0  0
 64 65  1  0  0  0  0
 67 68  4  0  0  0  0
 67 72  4  0  0  0  0
 68 69  4  0  0  0  0
 69 70  4  0  0  0  0
 70 71  4  0  0  0  0
 71 72  4  0  0  0  0
M  END
$$$$
