mol_ETKDG0_175
  PyMOL3.1          3D                             0

 73 79  0  0  0  0  0  0  0  0999 V2000
    0.2548   16.9226  -11.1043 C   0  0  0  0  0  0  0  0  0  0  0  0
    0.1740   15.4125  -11.1145 C   0  0  0  0  0  0  0  0  0  0  0  0
   -0.1184   14.8826  -12.3719 O   0  0  0  0  0  0  0  0  0  0  0  0
   -1.4866   14.8163  -12.7399 C   0  0  0  0  0  0  0  0  0  0  0  0
    1.4335   14.7783  -10.6729 C   0  0  0  0  0  0  0  0  0  0  0  0
    2.5820   15.4110  -10.8924 N   0  0  0  0  0  0  0  0  0  0  0  0
    3.7511   14.8419  -10.5528 C   0  0  0  0  0  0  0  0  0  0  0  0
    3.7871   13.5920   -9.9380 C   0  0  0  0  0  0  0  0  0  0  0  0
    2.6111   12.9500   -9.7076 C   0  0  0  0  0  0  0  0  0  0  0  0
    1.4309   13.5324  -10.0847 C   0  0  0  0  0  0  0  0  0  0  0  0
    0.1906   12.8574   -9.8110 C   0  0  0  0  0  0  0  0  0  0  0  0
   -0.3532   11.8705  -10.5778 N   0  0  0  0  0  0  0  0  0  0  0  0
    0.2102   11.2466  -11.7744 C   0  0  0  0  0  0  0  0  0  0  0  0
    0.7724    9.8629  -11.3998 C   0  0  0  0  0  0  0  0  0  0  0  0
   -0.6758   13.1457   -8.7613 C   0  0  0  0  0  0  0  0  0  0  0  0
   -0.5597   14.1394   -7.6517 C   0  0  0  0  0  0  0  0  0  0  0  0
    0.1012   13.5991   -6.3583 C   0  0  0  0  0  0  0  0  0  0  0  0
   -0.6062   14.2303   -5.1602 C   0  0  0  0  0  0  0  0  0  0  0  0
    1.5927   13.9888   -6.3183 C   0  0  0  0  0  0  0  0  0  0  0  0
    0.0983   12.1482   -6.2151 C   0  0  0  0  0  0  0  0  0  0  0  0
   -0.6022   11.5578   -5.1023 O   0  0  0  0  0  0  0  0  0  0  0  0
   -0.9030   10.1833   -5.0215 C   0  0  0  0  0  0  0  0  0  0  0  0
   -1.6338    9.8241   -3.7757 C   0  0  0  0  0  0  0  0  0  0  0  0
   -2.3195    8.5477   -3.9948 N   0  0  0  0  0  0  0  0  0  0  0  0
   -3.0065    8.0999   -2.8901 N   0  0  0  0  0  0  0  0  0  0  0  0
   -4.3696    7.9955   -2.9037 C   0  0  0  0  0  0  0  0  0  0  0  0
   -5.0644    8.3050   -4.2067 C   0  0  0  0  0  0  0  0  0  0  0  0
   -6.2535    7.5035   -4.4039 N   0  0  0  0  0  0  0  0  0  0  0  0
   -6.3185    6.5210   -5.2907 C   0  0  0  0  0  0  0  0  0  0  0  0
   -7.6818    5.9348   -5.4622 C   0  0  0  0  0  0  0  0  0  0  0  0
   -7.7816    4.4235   -5.0753 C   0  0  0  0  0  0  0  0  0  0  0  0
   -9.1770    3.8952   -5.3846 C   0  0  0  0  0  0  0  0  0  0  0  0
   -7.4871    4.2446   -3.5819 C   0  0  0  0  0  0  0  0  0  0  0  0
   -8.0776    6.1418   -6.8272 N   0  0  0  0  0  0  0  0  0  0  0  0
   -9.0622    7.0454   -7.0807 C   0  0  0  0  0  0  0  0  0  0  0  0
   -9.6513    7.1328   -8.4638 C   0  0  0  0  0  0  0  0  0  0  0  0
  -11.0274    7.7881   -8.4507 C   0  0  0  0  0  0  0  0  0  0  0  0
  -11.6881    7.6532   -9.7836 C   0  0  0  0  0  0  0  0  0  0  0  0
  -11.6411    6.2473  -10.2117 N   0  0  0  0  0  0  0  0  0  0  0  0
  -12.6869    5.4065  -10.4006 C   0  0  0  0  0  0  0  0  0  0  0  0
  -13.9489    5.8845  -10.2139 C   0  0  0  0  0  0  0  0  0  0  0  0
  -15.0318    6.1748  -10.1014 C   0  0  0  0  0  0  0  0  0  0  0  0
  -16.3420    6.6578   -9.8670 C   0  0  0  0  0  0  0  0  0  0  0  0
  -16.5033    7.0539   -8.4656 N   0  0  0  0  0  0  0  0  0  0  0  0
  -15.7919    6.2376   -7.4885 C   0  0  0  0  0  0  0  0  0  0  0  0
  -17.8336    7.4090   -8.0606 C   0  0  0  0  0  0  0  0  0  0  0  0
  -17.3232    5.5426  -10.2030 C   0  0  0  0  0  0  0  0  0  0  0  0
  -16.5519    7.8951  -10.7644 C   0  0  0  0  0  0  0  0  0  0  0  0
  -12.5235    4.2311  -10.7223 O   0  0  0  0  0  0  0  0  0  0  0  0
  -10.3751    5.6701  -10.3158 C   0  0  0  0  0  0  0  0  0  0  0  0
   -9.8635    5.7142   -8.9341 C   0  0  0  0  0  0  0  0  0  0  0  0
   -9.5018    7.7797   -6.1785 O   0  0  0  0  0  0  0  0  0  0  0  0
   -7.3329    5.3687   -7.8524 C   0  0  0  0  0  0  0  0  0  0  0  0
   -5.3527    6.1662   -5.9506 O   0  0  0  0  0  0  0  0  0  0  0  0
   -5.4999    9.8062   -4.1881 C   0  0  0  0  0  0  0  0  0  0  0  0
   -5.9114   10.2638   -5.5764 C   0  0  0  0  0  0  0  0  0  0  0  0
   -4.6628   10.5046   -6.3959 C   0  0  0  0  0  0  0  0  0  0  0  0
   -5.0012   11.1230   -7.7035 N   0  0  0  0  0  0  0  0  0  0  0  0
   -5.8857   12.3646   -7.4764 C   0  0  0  0  0  0  0  0  0  0  0  0
   -7.0985   12.0029   -6.7013 C   0  0  0  0  0  0  0  0  0  0  0  0
   -6.7040   11.4373   -5.4425 O   0  0  0  0  0  0  0  0  0  0  0  0
   -5.0182    7.7378   -1.9166 O   0  0  0  0  0  0  0  0  0  0  0  0
   -2.1795    7.8666   -1.7057 C   0  0  0  0  0  0  0  0  0  0  0  0
   -1.4343    9.1690   -1.3734 C   0  0  0  0  0  0  0  0  0  0  0  0
   -0.6793    9.6798   -2.5885 C   0  0  0  0  0  0  0  0  0  0  0  0
   -0.6466    9.2802   -5.8514 O   0  0  0  0  0  0  0  0  0  0  0  0
   -1.7349   12.2847   -8.9229 C   0  0  0  0  0  0  0  0  0  0  0  0
   -1.5149   11.4996  -10.0383 C   0  0  0  0  0  0  0  0  0  0  0  0
   -2.4847   10.5277  -10.3945 C   0  0  0  0  0  0  0  0  0  0  0  0
   -3.6258   10.4045   -9.5948 C   0  0  0  0  0  0  0  0  0  0  0  0
   -3.8309   11.2465   -8.4827 C   0  0  0  0  0  0  0  0  0  0  0  0
   -2.8296   12.1704   -8.1621 C   0  0  0  0  0  0  0  0  0  0  0  0
   -8.7786    7.8321   -9.2885 F   0  0  0  0  0  0  0  0  0  0  0  0
  1  2  1  0  0  0  0
  2  3  1  0  0  0  0
  2  5  1  0  0  0  0
  3  4  1  0  0  0  0
  5  6  4  0  0  0  0
  5 10  4  0  0  0  0
  6  7  4  0  0  0  0
  7  8  4  0  0  0  0
  8  9  4  0  0  0  0
  9 10  4  0  0  0  0
 10 11  1  0  0  0  0
 11 12  4  0  0  0  0
 11 15  4  0  0  0  0
 12 13  1  0  0  0  0
 12 68  4  0  0  0  0
 13 14  1  0  0  0  0
 15 16  1  0  0  0  0
 15 67  4  0  0  0  0
 16 17  1  0  0  0  0
 17 18  1  0  0  0  0
 17 19  1  0  0  0  0
 17 20  1  0  0  0  0
 20 21  1  0  0  0  0
 21 22  1  0  0  0  0
 22 23  1  0  0  0  0
 22 66  2  0  0  0  0
 23 24  1  0  0  0  0
 23 65  1  0  0  0  0
 24 25  1  0  0  0  0
 25 26  1  0  0  0  0
 25 63  1  0  0  0  0
 26 27  1  0  0  0  0
 26 62  2  0  0  0  0
 27 28  1  0  0  0  0
 27 55  1  0  0  0  0
 28 29  1  0  0  0  0
 29 30  1  0  0  0  0
 29 54  2  0  0  0  0
 30 31  1  0  0  0  0
 30 34  1  0  0  0  0
 31 32  1  0  0  0  0
 31 33  1  0  0  0  0
 34 35  1  0  0  0  0
 34 53  1  0  0  0  0
 35 36  1  0  0  0  0
 35 52  2  0  0  0  0
 36 37  1  0  0  0  0
 36 51  1  0  0  0  0
 36 73  1  0  0  0  0
 37 38  1  0  0  0  0
 38 39  1  0  0  0  0
 39 40  1  0  0  0  0
 39 50  1  0  0  0  0
 40 41  1  0  0  0  0
 40 49  2  0  0  0  0
 41 42  1  0  0  0  0
 42 43  1  0  0  0  0
 43 44  1  0  0  0  0
 43 47  1  0  0  0  0
 43 48  1  0  0  0  0
 44 45  1  0  0  0  0
 44 46  1  0  0  0  0
 50 51  1  0  0  0  0
 55 56  1  0  0  0  0
 56 57  1  0  0  0  0
 56 61  1  0  0  0  0
 57 58  1  0  0  0  0
 58 59  1  0  0  0  0
 58 71  1  0  0  0  0
 59 60  1  0  0  0  0
 60 61  1  0  0  0  0
 63 64  1  0  0  0  0
 64 65  1  0  0  0  0
 67 68  4  0  0  0  0
 67 72  4  0  0  0  0
 68 69  4  0  0  0  0
 69 70  4  0  0  0  0
 70 71  4  0  0  0  0
 71 72  4  0  0  0  0
M  END
$$$$
