mol_ETKDG5_141
  PyMOL3.1          3D                             0

 73 79  0  0  0  0  0  0  0  0999 V2000
   -0.3713   16.3805  -11.1014 C   0  0  0  0  0  0  0  0  0  0  0  0
   -0.2689   14.9504  -11.5960 C   0  0  0  0  0  0  0  0  0  0  0  0
   -0.3065   14.8259  -13.0055 O   0  0  0  0  0  0  0  0  0  0  0  0
   -1.5017   14.3410  -13.5778 C   0  0  0  0  0  0  0  0  0  0  0  0
    0.9701   14.3033  -11.1331 C   0  0  0  0  0  0  0  0  0  0  0  0
    2.1275   14.8376  -11.4837 N   0  0  0  0  0  0  0  0  0  0  0  0
    3.2801   14.2633  -11.1020 C   0  0  0  0  0  0  0  0  0  0  0  0
    3.2838   13.1099  -10.3212 C   0  0  0  0  0  0  0  0  0  0  0  0
    2.0925   12.5663   -9.9644 C   0  0  0  0  0  0  0  0  0  0  0  0
    0.9382   13.1624  -10.3801 C   0  0  0  0  0  0  0  0  0  0  0  0
   -0.3188   12.5893   -9.9836 C   0  0  0  0  0  0  0  0  0  0  0  0
   -1.0053   11.6757  -10.7178 N   0  0  0  0  0  0  0  0  0  0  0  0
   -0.6136   11.0807  -11.9940 C   0  0  0  0  0  0  0  0  0  0  0  0
   -0.0288    9.6862  -11.7468 C   0  0  0  0  0  0  0  0  0  0  0  0
   -1.0410   12.9241   -8.8497 C   0  0  0  0  0  0  0  0  0  0  0  0
   -0.7486   13.9017   -7.7610 C   0  0  0  0  0  0  0  0  0  0  0  0
   -0.0108   13.3242   -6.5101 C   0  0  0  0  0  0  0  0  0  0  0  0
   -0.5444   14.0289   -5.2627 C   0  0  0  0  0  0  0  0  0  0  0  0
    1.5069   13.6032   -6.6083 C   0  0  0  0  0  0  0  0  0  0  0  0
   -0.1233   11.9237   -6.3691 C   0  0  0  0  0  0  0  0  0  0  0  0
   -0.7537   11.3747   -5.1760 O   0  0  0  0  0  0  0  0  0  0  0  0
   -1.0075   10.0042   -5.0246 C   0  0  0  0  0  0  0  0  0  0  0  0
   -1.7184    9.6815   -3.7647 C   0  0  0  0  0  0  0  0  0  0  0  0
   -2.4307    8.4409   -3.9667 N   0  0  0  0  0  0  0  0  0  0  0  0
   -3.1042    8.0020   -2.8518 N   0  0  0  0  0  0  0  0  0  0  0  0
   -4.4604    7.9371   -2.8366 C   0  0  0  0  0  0  0  0  0  0  0  0
   -5.1732    8.2949   -4.1056 C   0  0  0  0  0  0  0  0  0  0  0  0
   -6.3540    7.5011   -4.3140 N   0  0  0  0  0  0  0  0  0  0  0  0
   -6.4430    6.5512   -5.2415 C   0  0  0  0  0  0  0  0  0  0  0  0
   -7.8153    5.9982   -5.3976 C   0  0  0  0  0  0  0  0  0  0  0  0
   -7.9161    4.4830   -5.0731 C   0  0  0  0  0  0  0  0  0  0  0  0
   -9.3284    3.9913   -5.3274 C   0  0  0  0  0  0  0  0  0  0  0  0
   -7.5502    4.2470   -3.5997 C   0  0  0  0  0  0  0  0  0  0  0  0
   -8.2846    6.3042   -6.7250 N   0  0  0  0  0  0  0  0  0  0  0  0
   -9.1552    7.3287   -6.8611 C   0  0  0  0  0  0  0  0  0  0  0  0
   -9.8848    7.5233   -8.1605 C   0  0  0  0  0  0  0  0  0  0  0  0
  -10.8611    8.6836   -8.0991 C   0  0  0  0  0  0  0  0  0  0  0  0
  -11.6748    8.7257   -9.3365 C   0  0  0  0  0  0  0  0  0  0  0  0
  -12.2863    7.4102   -9.5604 N   0  0  0  0  0  0  0  0  0  0  0  0
  -13.6120    7.1504   -9.5801 C   0  0  0  0  0  0  0  0  0  0  0  0
  -14.5109    8.1379   -9.2301 C   0  0  0  0  0  0  0  0  0  0  0  0
  -15.3606    8.8346   -8.9461 C   0  0  0  0  0  0  0  0  0  0  0  0
  -16.3531    9.7596   -8.5086 C   0  0  0  0  0  0  0  0  0  0  0  0
  -16.1250   10.1349   -7.1314 N   0  0  0  0  0  0  0  0  0  0  0  0
  -15.5004    9.2135   -6.2418 C   0  0  0  0  0  0  0  0  0  0  0  0
  -16.2301   11.4887   -6.7168 C   0  0  0  0  0  0  0  0  0  0  0  0
  -17.7355    9.1091   -8.5812 C   0  0  0  0  0  0  0  0  0  0  0  0
  -16.2880   10.9723   -9.4297 C   0  0  0  0  0  0  0  0  0  0  0  0
  -14.0285    6.0351   -9.8640 O   0  0  0  0  0  0  0  0  0  0  0  0
  -11.4043    6.2914   -9.6720 C   0  0  0  0  0  0  0  0  0  0  0  0
  -10.6713    6.2380   -8.3883 C   0  0  0  0  0  0  0  0  0  0  0  0
   -9.3998    8.0753   -5.9052 O   0  0  0  0  0  0  0  0  0  0  0  0
   -7.7481    5.4820   -7.8505 C   0  0  0  0  0  0  0  0  0  0  0  0
   -5.4953    6.1954   -5.9369 O   0  0  0  0  0  0  0  0  0  0  0  0
   -5.6171    9.7812   -3.9908 C   0  0  0  0  0  0  0  0  0  0  0  0
   -6.1206   10.3017   -5.3174 C   0  0  0  0  0  0  0  0  0  0  0  0
   -4.9221   10.5777   -6.1766 C   0  0  0  0  0  0  0  0  0  0  0  0
   -5.3579   11.1871   -7.4436 N   0  0  0  0  0  0  0  0  0  0  0  0
   -6.1943   12.4219   -7.1798 C   0  0  0  0  0  0  0  0  0  0  0  0
   -7.3789   12.0514   -6.3287 C   0  0  0  0  0  0  0  0  0  0  0  0
   -6.8979   11.4693   -5.1046 O   0  0  0  0  0  0  0  0  0  0  0  0
   -5.0920    7.6747   -1.8434 O   0  0  0  0  0  0  0  0  0  0  0  0
   -2.2685    7.7552   -1.6833 C   0  0  0  0  0  0  0  0  0  0  0  0
   -1.4852    9.0553   -1.3650 C   0  0  0  0  0  0  0  0  0  0  0  0
   -0.7480    9.5320   -2.5938 C   0  0  0  0  0  0  0  0  0  0  0  0
   -0.7290    9.0543   -5.8047 O   0  0  0  0  0  0  0  0  0  0  0  0
   -2.1709   12.1534   -8.9220 C   0  0  0  0  0  0  0  0  0  0  0  0
   -2.1234   11.3862  -10.0736 C   0  0  0  0  0  0  0  0  0  0  0  0
   -3.2016   10.5035  -10.3612 C   0  0  0  0  0  0  0  0  0  0  0  0
   -4.2506   10.4471   -9.4682 C   0  0  0  0  0  0  0  0  0  0  0  0
   -4.2744   11.2617   -8.3211 C   0  0  0  0  0  0  0  0  0  0  0  0
   -3.2023   12.1038   -8.0557 C   0  0  0  0  0  0  0  0  0  0  0  0
   -8.9675    7.7637   -9.1745 F   0  0  0  0  0  0  0  0  0  0  0  0
  1  2  1  0  0  0  0
  2  3  1  0  0  0  0
  2  5  1  0  0  0  0
  3  4  1  0  0  0  0
  5  6  4  0  0  0  0
  5 10  4  0  0  0  0
  6  7  4  0  0  0  0
  7  8  4  0  0  0  0
  8  9  4  0  0  0  0
  9 10  4  0  0  0  0
 10 11  1  0  0  0  0
 11 12  4  0  0  0  0
 11 15  4  0  0  0  0
 12 13  1  0  0  0  0
 12 68  4  0  0  0  0
 13 14  1  0  0  0  0
 15 16  1  0  0  0  0
 15 67  4  0  0  0  0
 16 17  1  0  0  0  0
 17 18  1  0  0  0  0
 17 19  1  0  0  0  0
 17 20  1  0  0  0  0
 20 21  1  0  0  0  0
 21 22  1  0  0  0  0
 22 23  1  0  0  0  0
 22 66  2  0  0  0  0
 23 24  1  0  0  0  0
 23 65  1  0  0  0  0
 24 25  1  0  0  0  0
 25 26  1  0  0  0  0
 25 63  1  0  0  0  0
 26 27  1  0  0  0  0
 26 62  2  0  0  0  0
 27 28  1  0  0  0  0
 27 55  1  0  0  0  0
 28 29  1  0  0  0  0
 29 30  1  0  0  0  0
 29 54  2  0  0  0  0
 30 31  1  0  0  0  0
 30 34  1  0  0  0  0
 31 32  1  0  0  0  0
 31 33  1  0  0  0  0
 34 35  1  0  0  0  0
 34 53  1  0  0  0  0
 35 36  1  0  0  0  0
 35 52  2  0  0  0  0
 36 37  1  0  0  0  0
 36 51  1  0  0  0  0
 36 73  1  0  0  0  0
 37 38  1  0  0  0  0
 38 39  1  0  0  0  0
 39 40  1  0  0  0  0
 39 50  1  0  0  0  0
 40 41  1  0  0  0  0
 40 49  2  0  0  0  0
 41 42  1  0  0  0  0
 42 43  1  0  0  0  0
 43 44  1  0  0  0  0
 43 47  1  0  0  0  0
 43 48  1  0  0  0  0
 44 45  1  0  0  0  0
 44 46  1  0  0  0  0
 50 51  1  0  0  0  0
 55 56  1  0  0  0  0
 56 57  1  0  0  0  0
 56 61  1  0  0  0  0
 57 58  1  0  0  0  0
 58 59  1  0  0  0  0
 58 71  1  0  0  0  0
 59 60  1  0  0  0  0
 60 61  1  0  0  0  0
 63 64  1  0  0  0  0
 64 65  1  0  0  0  0
 67 68  4  0  0  0  0
 67 72  4  0  0  0  0
 68 69  4  0  0  0  0
 69 70  4  0  0  0  0
 70 71  4  0  0  0  0
 71 72  4  0  0  0  0
M  END
$$$$
