mol_ETKDG2_66
  PyMOL3.1          3D                             0

 73 79  0  0  0  0  0  0  0  0999 V2000
    2.3847   12.0391  -10.3233 C   0  0  0  0  0  0  0  0  0  0  0  0
    2.3000   13.3335   -9.4944 C   0  0  0  0  0  0  0  0  0  0  0  0
    3.6197   13.6929   -9.0888 O   0  0  0  0  0  0  0  0  0  0  0  0
    3.9568   13.4937   -7.7427 C   0  0  0  0  0  0  0  0  0  0  0  0
    1.7815   14.4380  -10.2752 C   0  0  0  0  0  0  0  0  0  0  0  0
    2.6577   15.3074  -10.7427 N   0  0  0  0  0  0  0  0  0  0  0  0
    2.2817   16.3365  -11.4905 C   0  0  0  0  0  0  0  0  0  0  0  0
    0.9399   16.5268  -11.8123 C   0  0  0  0  0  0  0  0  0  0  0  0
    0.0321   15.6331  -11.3332 C   0  0  0  0  0  0  0  0  0  0  0  0
    0.4558   14.5620  -10.5649 C   0  0  0  0  0  0  0  0  0  0  0  0
   -0.5626   13.6512  -10.0749 C   0  0  0  0  0  0  0  0  0  0  0  0
   -1.1209   12.6777  -10.8464 N   0  0  0  0  0  0  0  0  0  0  0  0
   -0.7401   12.2799  -12.2153 C   0  0  0  0  0  0  0  0  0  0  0  0
   -0.1286   10.8871  -12.2475 C   0  0  0  0  0  0  0  0  0  0  0  0
   -1.2174   13.7025   -8.8321 C   0  0  0  0  0  0  0  0  0  0  0  0
   -0.9663   14.5483   -7.6066 C   0  0  0  0  0  0  0  0  0  0  0  0
   -0.4255   13.8726   -6.3022 C   0  0  0  0  0  0  0  0  0  0  0  0
   -1.3457   14.3088   -5.1531 C   0  0  0  0  0  0  0  0  0  0  0  0
    0.9980   14.4019   -5.9889 C   0  0  0  0  0  0  0  0  0  0  0  0
   -0.3186   12.3867   -6.3011 C   0  0  0  0  0  0  0  0  0  0  0  0
   -0.8313   11.6856   -5.1176 O   0  0  0  0  0  0  0  0  0  0  0  0
   -1.0023   10.2792   -5.0432 C   0  0  0  0  0  0  0  0  0  0  0  0
   -1.6916    9.8253   -3.7846 C   0  0  0  0  0  0  0  0  0  0  0  0
   -2.3634    8.5485   -4.0385 N   0  0  0  0  0  0  0  0  0  0  0  0
   -3.0376    8.0578   -2.9387 N   0  0  0  0  0  0  0  0  0  0  0  0
   -4.3998    7.9431   -2.9382 C   0  0  0  0  0  0  0  0  0  0  0  0
   -5.1124    8.2866   -4.2257 C   0  0  0  0  0  0  0  0  0  0  0  0
   -6.3079    7.4870   -4.4357 N   0  0  0  0  0  0  0  0  0  0  0  0
   -6.4225    6.5451   -5.3759 C   0  0  0  0  0  0  0  0  0  0  0  0
   -7.7996    5.9732   -5.5208 C   0  0  0  0  0  0  0  0  0  0  0  0
   -7.8871    4.4566   -5.1614 C   0  0  0  0  0  0  0  0  0  0  0  0
   -9.3162    3.9596   -5.3646 C   0  0  0  0  0  0  0  0  0  0  0  0
   -7.4721    4.2422   -3.6976 C   0  0  0  0  0  0  0  0  0  0  0  0
   -8.2785    6.2257   -6.8655 N   0  0  0  0  0  0  0  0  0  0  0  0
   -9.1166    7.2874   -7.0676 C   0  0  0  0  0  0  0  0  0  0  0  0
   -9.8417    7.4148   -8.3927 C   0  0  0  0  0  0  0  0  0  0  0  0
  -10.5590    8.7428   -8.5900 C   0  0  0  0  0  0  0  0  0  0  0  0
  -11.2980    8.7025   -9.8899 C   0  0  0  0  0  0  0  0  0  0  0  0
  -12.1884    7.5241   -9.9195 N   0  0  0  0  0  0  0  0  0  0  0  0
  -13.5212    7.5627  -10.1532 C   0  0  0  0  0  0  0  0  0  0  0  0
  -14.0961    8.7306  -10.6351 C   0  0  0  0  0  0  0  0  0  0  0  0
  -14.7361    9.5852  -11.0862 C   0  0  0  0  0  0  0  0  0  0  0  0
  -15.4705   10.6776  -11.6173 C   0  0  0  0  0  0  0  0  0  0  0  0
  -16.3698   11.2362  -10.5843 N   0  0  0  0  0  0  0  0  0  0  0  0
  -17.0573   10.2142   -9.7644 C   0  0  0  0  0  0  0  0  0  0  0  0
  -15.7870   12.3046   -9.7585 C   0  0  0  0  0  0  0  0  0  0  0  0
  -16.3040   10.1701  -12.7990 C   0  0  0  0  0  0  0  0  0  0  0  0
  -14.4714   11.7314  -12.1107 C   0  0  0  0  0  0  0  0  0  0  0  0
  -14.2152    6.5746   -9.9753 O   0  0  0  0  0  0  0  0  0  0  0  0
  -11.5980    6.2355   -9.6693 C   0  0  0  0  0  0  0  0  0  0  0  0
  -10.8787    6.3016   -8.3818 C   0  0  0  0  0  0  0  0  0  0  0  0
   -9.3305    8.1039   -6.1587 O   0  0  0  0  0  0  0  0  0  0  0  0
   -7.8099    5.3035   -7.9400 C   0  0  0  0  0  0  0  0  0  0  0  0
   -5.4826    6.2083   -6.0948 O   0  0  0  0  0  0  0  0  0  0  0  0
   -5.5355    9.7677   -4.1193 C   0  0  0  0  0  0  0  0  0  0  0  0
   -6.0279   10.2999   -5.4418 C   0  0  0  0  0  0  0  0  0  0  0  0
   -4.8322   10.6272   -6.2998 C   0  0  0  0  0  0  0  0  0  0  0  0
   -5.2690   11.3091   -7.5190 N   0  0  0  0  0  0  0  0  0  0  0  0
   -6.1933   12.4992   -7.1661 C   0  0  0  0  0  0  0  0  0  0  0  0
   -7.3369   12.0546   -6.3564 C   0  0  0  0  0  0  0  0  0  0  0  0
   -6.8397   11.4363   -5.1701 O   0  0  0  0  0  0  0  0  0  0  0  0
   -5.0356    7.6721   -1.9500 O   0  0  0  0  0  0  0  0  0  0  0  0
   -2.2085    7.7972   -1.7639 C   0  0  0  0  0  0  0  0  0  0  0  0
   -1.4491    9.1067   -1.4023 C   0  0  0  0  0  0  0  0  0  0  0  0
   -0.7127    9.6442   -2.6210 C   0  0  0  0  0  0  0  0  0  0  0  0
   -0.6696    9.4491   -5.8997 O   0  0  0  0  0  0  0  0  0  0  0  0
   -2.2271   12.7742   -8.9491 C   0  0  0  0  0  0  0  0  0  0  0  0
   -2.1393   12.1373  -10.1807 C   0  0  0  0  0  0  0  0  0  0  0  0
   -3.0912   11.1231  -10.5054 C   0  0  0  0  0  0  0  0  0  0  0  0
   -4.0875   10.8330   -9.5898 C   0  0  0  0  0  0  0  0  0  0  0  0
   -4.1921   11.5498   -8.3741 C   0  0  0  0  0  0  0  0  0  0  0  0
   -3.1890   12.4923   -8.0693 C   0  0  0  0  0  0  0  0  0  0  0  0
   -8.9472    7.2930   -9.4400 F   0  0  0  0  0  0  0  0  0  0  0  0
  1  2  1  0  0  0  0
  2  3  1  0  0  0  0
  2  5  1  0  0  0  0
  3  4  1  0  0  0  0
  5  6  4  0  0  0  0
  5 10  4  0  0  0  0
  6  7  4  0  0  0  0
  7  8  4  0  0  0  0
  8  9  4  0  0  0  0
  9 10  4  0  0  0  0
 10 11  1  0  0  0  0
 11 12  4  0  0  0  0
 11 15  4  0  0  0  0
 12 13  1  0  0  0  0
 12 68  4  0  0  0  0
 13 14  1  0  0  0  0
 15 16  1  0  0  0  0
 15 67  4  0  0  0  0
 16 17  1  0  0  0  0
 17 18  1  0  0  0  0
 17 19  1  0  0  0  0
 17 20  1  0  0  0  0
 20 21  1  0  0  0  0
 21 22  1  0  0  0  0
 22 23  1  0  0  0  0
 22 66  2  0  0  0  0
 23 24  1  0  0  0  0
 23 65  1  0  0  0  0
 24 25  1  0  0  0  0
 25 26  1  0  0  0  0
 25 63  1  0  0  0  0
 26 27  1  0  0  0  0
 26 62  2  0  0  0  0
 27 28  1  0  0  0  0
 27 55  1  0  0  0  0
 28 29  1  0  0  0  0
 29 30  1  0  0  0  0
 29 54  2  0  0  0  0
 30 31  1  0  0  0  0
 30 34  1  0  0  0  0
 31 32  1  0  0  0  0
 31 33  1  0  0  0  0
 34 35  1  0  0  0  0
 34 53  1  0  0  0  0
 35 36  1  0  0  0  0
 35 52  2  0  0  0  0
 36 37  1  0  0  0  0
 36 51  1  0  0  0  0
 36 73  1  0  0  0  0
 37 38  1  0  0  0  0
 38 39  1  0  0  0  0
 39 40  1  0  0  0  0
 39 50  1  0  0  0  0
 40 41  1  0  0  0  0
 40 49  2  0  0  0  0
 41 42  1  0  0  0  0
 42 43  1  0  0  0  0
 43 44  1  0  0  0  0
 43 47  1  0  0  0  0
 43 48  1  0  0  0  0
 44 45  1  0  0  0  0
 44 46  1  0  0  0  0
 50 51  1  0  0  0  0
 55 56  1  0  0  0  0
 56 57  1  0  0  0  0
 56 61  1  0  0  0  0
 57 58  1  0  0  0  0
 58 59  1  0  0  0  0
 58 71  1  0  0  0  0
 59 60  1  0  0  0  0
 60 61  1  0  0  0  0
 63 64  1  0  0  0  0
 64 65  1  0  0  0  0
 67 68  4  0  0  0  0
 67 72  4  0  0  0  0
 68 69  4  0  0  0  0
 69 70  4  0  0  0  0
 70 71  4  0  0  0  0
 71 72  4  0  0  0  0
M  END
$$$$
