mol_ETKDG4_120
  PyMOL3.1          3D                             0

 73 79  0  0  0  0  0  0  0  0999 V2000
    0.0706   16.6612  -11.1250 C   0  0  0  0  0  0  0  0  0  0  0  0
    0.0259   15.1524  -11.2070 C   0  0  0  0  0  0  0  0  0  0  0  0
   -0.2675   14.6609  -12.4946 O   0  0  0  0  0  0  0  0  0  0  0  0
   -1.6302   14.5153  -12.8416 C   0  0  0  0  0  0  0  0  0  0  0  0
    1.2973   14.5270  -10.7977 C   0  0  0  0  0  0  0  0  0  0  0  0
    2.4390   15.1303  -11.1109 N   0  0  0  0  0  0  0  0  0  0  0  0
    3.6182   14.5651  -10.7757 C   0  0  0  0  0  0  0  0  0  0  0  0
    3.6654   13.3619  -10.0845 C   0  0  0  0  0  0  0  0  0  0  0  0
    2.4877   12.7494   -9.7626 C   0  0  0  0  0  0  0  0  0  0  0  0
    1.3072   13.3185  -10.1341 C   0  0  0  0  0  0  0  0  0  0  0  0
    0.0689   12.6696   -9.7946 C   0  0  0  0  0  0  0  0  0  0  0  0
   -0.5094   11.6618  -10.5112 N   0  0  0  0  0  0  0  0  0  0  0  0
    0.0276   10.9873  -11.6961 C   0  0  0  0  0  0  0  0  0  0  0  0
    0.6313    9.6353  -11.2802 C   0  0  0  0  0  0  0  0  0  0  0  0
   -0.7664   13.0121   -8.7379 C   0  0  0  0  0  0  0  0  0  0  0  0
   -0.6087   14.0342   -7.6682 C   0  0  0  0  0  0  0  0  0  0  0  0
    0.0726   13.5189   -6.3691 C   0  0  0  0  0  0  0  0  0  0  0  0
   -0.5806   14.2017   -5.1670 C   0  0  0  0  0  0  0  0  0  0  0  0
    1.5701   13.8809   -6.3950 C   0  0  0  0  0  0  0  0  0  0  0  0
    0.0287   12.0697   -6.1996 C   0  0  0  0  0  0  0  0  0  0  0  0
   -0.6907   11.5086   -5.0745 O   0  0  0  0  0  0  0  0  0  0  0  0
   -0.9856   10.1317   -4.9742 C   0  0  0  0  0  0  0  0  0  0  0  0
   -1.7227    9.7819   -3.7265 C   0  0  0  0  0  0  0  0  0  0  0  0
   -2.4106    8.5156   -3.9439 N   0  0  0  0  0  0  0  0  0  0  0  0
   -3.1035    8.0658   -2.8395 N   0  0  0  0  0  0  0  0  0  0  0  0
   -4.4631    7.9708   -2.8538 C   0  0  0  0  0  0  0  0  0  0  0  0
   -5.1646    8.2722   -4.1446 C   0  0  0  0  0  0  0  0  0  0  0  0
   -6.3526    7.4706   -4.3379 N   0  0  0  0  0  0  0  0  0  0  0  0
   -6.4410    6.4915   -5.2508 C   0  0  0  0  0  0  0  0  0  0  0  0
   -7.8118    5.9179   -5.3929 C   0  0  0  0  0  0  0  0  0  0  0  0
   -7.9055    4.4086   -5.0180 C   0  0  0  0  0  0  0  0  0  0  0  0
   -9.3249    3.9029   -5.2642 C   0  0  0  0  0  0  0  0  0  0  0  0
   -7.5424    4.2177   -3.5387 C   0  0  0  0  0  0  0  0  0  0  0  0
   -8.2628    6.1510   -6.7412 N   0  0  0  0  0  0  0  0  0  0  0  0
   -9.1360    7.1658   -6.9484 C   0  0  0  0  0  0  0  0  0  0  0  0
   -9.7842    7.3096   -8.2971 C   0  0  0  0  0  0  0  0  0  0  0  0
  -10.6367    8.5671   -8.4125 C   0  0  0  0  0  0  0  0  0  0  0  0
  -11.2998    8.5614   -9.7385 C   0  0  0  0  0  0  0  0  0  0  0  0
  -12.0604    7.3055   -9.8712 N   0  0  0  0  0  0  0  0  0  0  0  0
  -13.3851    7.2637   -9.9768 C   0  0  0  0  0  0  0  0  0  0  0  0
  -14.0585    8.4792   -9.8806 C   0  0  0  0  0  0  0  0  0  0  0  0
  -14.6409    9.4599   -9.8444 C   0  0  0  0  0  0  0  0  0  0  0  0
  -15.2759   10.7381   -9.6875 C   0  0  0  0  0  0  0  0  0  0  0  0
  -14.2912   11.7502   -9.2559 N   0  0  0  0  0  0  0  0  0  0  0  0
  -13.7008   11.4830   -7.9341 C   0  0  0  0  0  0  0  0  0  0  0  0
  -13.2760   12.0871  -10.2547 C   0  0  0  0  0  0  0  0  0  0  0  0
  -16.3694   10.6371   -8.6264 C   0  0  0  0  0  0  0  0  0  0  0  0
  -15.8800   11.1440  -11.0349 C   0  0  0  0  0  0  0  0  0  0  0  0
  -13.9804    6.2056  -10.1198 O   0  0  0  0  0  0  0  0  0  0  0  0
  -11.3202    6.0685   -9.7879 C   0  0  0  0  0  0  0  0  0  0  0  0
  -10.6786    6.0816   -8.4461 C   0  0  0  0  0  0  0  0  0  0  0  0
   -9.4292    7.9450   -6.0318 O   0  0  0  0  0  0  0  0  0  0  0  0
   -7.7075    5.2694   -7.8113 C   0  0  0  0  0  0  0  0  0  0  0  0
   -5.4861    6.1506   -5.9400 O   0  0  0  0  0  0  0  0  0  0  0  0
   -5.5889    9.7729   -4.0870 C   0  0  0  0  0  0  0  0  0  0  0  0
   -6.0080   10.2641   -5.4456 C   0  0  0  0  0  0  0  0  0  0  0  0
   -4.7660   10.4932   -6.2656 C   0  0  0  0  0  0  0  0  0  0  0  0
   -5.1059   11.1295   -7.5456 N   0  0  0  0  0  0  0  0  0  0  0  0
   -5.9389   12.4080   -7.2908 C   0  0  0  0  0  0  0  0  0  0  0  0
   -7.1532   12.0710   -6.5236 C   0  0  0  0  0  0  0  0  0  0  0  0
   -6.7611   11.4633   -5.2722 O   0  0  0  0  0  0  0  0  0  0  0  0
   -5.1081    7.7253   -1.8548 O   0  0  0  0  0  0  0  0  0  0  0  0
   -2.2827    7.8338   -1.6561 C   0  0  0  0  0  0  0  0  0  0  0  0
   -1.5285    9.1514   -1.3263 C   0  0  0  0  0  0  0  0  0  0  0  0
   -0.7716    9.6438   -2.5398 C   0  0  0  0  0  0  0  0  0  0  0  0
   -0.7221    9.2106   -5.7860 O   0  0  0  0  0  0  0  0  0  0  0  0
   -1.8437   12.1683   -8.8453 C   0  0  0  0  0  0  0  0  0  0  0  0
   -1.6614   11.3302   -9.9369 C   0  0  0  0  0  0  0  0  0  0  0  0
   -2.6596   10.3635  -10.2327 C   0  0  0  0  0  0  0  0  0  0  0  0
   -3.7823   10.2943   -9.4135 C   0  0  0  0  0  0  0  0  0  0  0  0
   -3.9497   11.1920   -8.3394 C   0  0  0  0  0  0  0  0  0  0  0  0
   -2.9176   12.1078   -8.0679 C   0  0  0  0  0  0  0  0  0  0  0  0
   -8.8091    7.3686   -9.2884 F   0  0  0  0  0  0  0  0  0  0  0  0
  1  2  1  0  0  0  0
  2  3  1  0  0  0  0
  2  5  1  0  0  0  0
  3  4  1  0  0  0  0
  5  6  4  0  0  0  0
  5 10  4  0  0  0  0
  6  7  4  0  0  0  0
  7  8  4  0  0  0  0
  8  9  4  0  0  0  0
  9 10  4  0  0  0  0
 10 11  1  0  0  0  0
 11 12  4  0  0  0  0
 11 15  4  0  0  0  0
 12 13  1  0  0  0  0
 12 68  4  0  0  0  0
 13 14  1  0  0  0  0
 15 16  1  0  0  0  0
 15 67  4  0  0  0  0
 16 17  1  0  0  0  0
 17 18  1  0  0  0  0
 17 19  1  0  0  0  0
 17 20  1  0  0  0  0
 20 21  1  0  0  0  0
 21 22  1  0  0  0  0
 22 23  1  0  0  0  0
 22 66  2  0  0  0  0
 23 24  1  0  0  0  0
 23 65  1  0  0  0  0
 24 25  1  0  0  0  0
 25 26  1  0  0  0  0
 25 63  1  0  0  0  0
 26 27  1  0  0  0  0
 26 62  2  0  0  0  0
 27 28  1  0  0  0  0
 27 55  1  0  0  0  0
 28 29  1  0  0  0  0
 29 30  1  0  0  0  0
 29 54  2  0  0  0  0
 30 31  1  0  0  0  0
 30 34  1  0  0  0  0
 31 32  1  0  0  0  0
 31 33  1  0  0  0  0
 34 35  1  0  0  0  0
 34 53  1  0  0  0  0
 35 36  1  0  0  0  0
 35 52  2  0  0  0  0
 36 37  1  0  0  0  0
 36 51  1  0  0  0  0
 36 73  1  0  0  0  0
 37 38  1  0  0  0  0
 38 39  1  0  0  0  0
 39 40  1  0  0  0  0
 39 50  1  0  0  0  0
 40 41  1  0  0  0  0
 40 49  2  0  0  0  0
 41 42  1  0  0  0  0
 42 43  1  0  0  0  0
 43 44  1  0  0  0  0
 43 47  1  0  0  0  0
 43 48  1  0  0  0  0
 44 45  1  0  0  0  0
 44 46  1  0  0  0  0
 50 51  1  0  0  0  0
 55 56  1  0  0  0  0
 56 57  1  0  0  0  0
 56 61  1  0  0  0  0
 57 58  1  0  0  0  0
 58 59  1  0  0  0  0
 58 71  1  0  0  0  0
 59 60  1  0  0  0  0
 60 61  1  0  0  0  0
 63 64  1  0  0  0  0
 64 65  1  0  0  0  0
 67 68  4  0  0  0  0
 67 72  4  0  0  0  0
 68 69  4  0  0  0  0
 69 70  4  0  0  0  0
 70 71  4  0  0  0  0
 71 72  4  0  0  0  0
M  END
$$$$
