mol_ETKDG1_35
  PyMOL3.1          3D                             0

 73 79  0  0  0  0  0  0  0  0999 V2000
   -0.5141   14.6710  -13.7563 C   0  0  0  0  0  0  0  0  0  0  0  0
   -0.6136   14.2173  -12.3167 C   0  0  0  0  0  0  0  0  0  0  0  0
   -1.1437   15.1972  -11.4880 O   0  0  0  0  0  0  0  0  0  0  0  0
   -2.5672   15.2640  -11.3787 C   0  0  0  0  0  0  0  0  0  0  0  0
    0.7073   13.8284  -11.7564 C   0  0  0  0  0  0  0  0  0  0  0  0
    1.7996   14.3941  -12.2385 N   0  0  0  0  0  0  0  0  0  0  0  0
    3.0060   14.0715  -11.7583 C   0  0  0  0  0  0  0  0  0  0  0  0
    3.1482   13.1133  -10.7596 C   0  0  0  0  0  0  0  0  0  0  0  0
    2.0333   12.5185  -10.2707 C   0  0  0  0  0  0  0  0  0  0  0  0
    0.8112   12.8799  -10.7656 C   0  0  0  0  0  0  0  0  0  0  0  0
   -0.3748   12.2845  -10.2374 C   0  0  0  0  0  0  0  0  0  0  0  0
   -1.0470   11.2691  -10.8449 N   0  0  0  0  0  0  0  0  0  0  0  0
   -0.6591   10.5350  -12.0619 C   0  0  0  0  0  0  0  0  0  0  0  0
   -0.0142    9.1930  -11.6901 C   0  0  0  0  0  0  0  0  0  0  0  0
   -1.0671   12.6978   -9.1030 C   0  0  0  0  0  0  0  0  0  0  0  0
   -0.7657   13.7568   -8.0900 C   0  0  0  0  0  0  0  0  0  0  0  0
   -0.0534   13.2828   -6.7878 C   0  0  0  0  0  0  0  0  0  0  0  0
   -0.6721   14.0113   -5.5900 C   0  0  0  0  0  0  0  0  0  0  0  0
    1.4515   13.6186   -6.8298 C   0  0  0  0  0  0  0  0  0  0  0  0
   -0.0981   11.8650   -6.5442 C   0  0  0  0  0  0  0  0  0  0  0  0
   -0.7322   11.3523   -5.3279 O   0  0  0  0  0  0  0  0  0  0  0  0
   -0.9905    9.9827   -5.1246 C   0  0  0  0  0  0  0  0  0  0  0  0
   -1.6834    9.6796   -3.8327 C   0  0  0  0  0  0  0  0  0  0  0  0
   -2.4125    8.4333   -3.9969 N   0  0  0  0  0  0  0  0  0  0  0  0
   -3.0719    8.0184   -2.8632 N   0  0  0  0  0  0  0  0  0  0  0  0
   -4.4276    7.9382   -2.8351 C   0  0  0  0  0  0  0  0  0  0  0  0
   -5.1577    8.2683   -4.1042 C   0  0  0  0  0  0  0  0  0  0  0  0
   -6.3453    7.4722   -4.3010 N   0  0  0  0  0  0  0  0  0  0  0  0
   -6.4613    6.5247   -5.2264 C   0  0  0  0  0  0  0  0  0  0  0  0
   -7.8351    5.9595   -5.3421 C   0  0  0  0  0  0  0  0  0  0  0  0
   -7.9203    4.4446   -5.0169 C   0  0  0  0  0  0  0  0  0  0  0  0
   -9.3336    3.9367   -5.2350 C   0  0  0  0  0  0  0  0  0  0  0  0
   -7.5087    4.2101   -3.5530 C   0  0  0  0  0  0  0  0  0  0  0  0
   -8.3579    6.2677   -6.6510 N   0  0  0  0  0  0  0  0  0  0  0  0
   -9.1933    7.3311   -6.7478 C   0  0  0  0  0  0  0  0  0  0  0  0
  -10.0146    7.5420   -7.9949 C   0  0  0  0  0  0  0  0  0  0  0  0
  -10.9354    8.7501   -7.8227 C   0  0  0  0  0  0  0  0  0  0  0  0
  -11.9101    8.8240   -8.9324 C   0  0  0  0  0  0  0  0  0  0  0  0
  -12.5909    7.5330   -9.0555 N   0  0  0  0  0  0  0  0  0  0  0  0
  -13.8961    7.3004   -8.8119 C   0  0  0  0  0  0  0  0  0  0  0  0
  -14.6529    8.2817   -8.2031 C   0  0  0  0  0  0  0  0  0  0  0  0
  -15.3719    8.9941   -7.6953 C   0  0  0  0  0  0  0  0  0  0  0  0
  -16.1402    9.9506   -6.9827 C   0  0  0  0  0  0  0  0  0  0  0  0
  -15.6107   10.1284   -5.6303 N   0  0  0  0  0  0  0  0  0  0  0  0
  -15.0320    8.9523   -5.0206 C   0  0  0  0  0  0  0  0  0  0  0  0
  -16.3943   10.9166   -4.7312 C   0  0  0  0  0  0  0  0  0  0  0  0
  -17.5816    9.4462   -6.9068 C   0  0  0  0  0  0  0  0  0  0  0  0
  -16.0468   11.2931   -7.7296 C   0  0  0  0  0  0  0  0  0  0  0  0
  -14.4107    6.2253   -9.0774 O   0  0  0  0  0  0  0  0  0  0  0  0
  -11.7662    6.4005   -9.3202 C   0  0  0  0  0  0  0  0  0  0  0  0
  -10.8757    6.2945   -8.1277 C   0  0  0  0  0  0  0  0  0  0  0  0
   -9.3311    8.1091   -5.7921 O   0  0  0  0  0  0  0  0  0  0  0  0
   -7.9339    5.4108   -7.7834 C   0  0  0  0  0  0  0  0  0  0  0  0
   -5.5314    6.1750   -5.9446 O   0  0  0  0  0  0  0  0  0  0  0  0
   -5.5844    9.7591   -3.9959 C   0  0  0  0  0  0  0  0  0  0  0  0
   -6.0918   10.2809   -5.3195 C   0  0  0  0  0  0  0  0  0  0  0  0
   -4.9046   10.4492   -6.2143 C   0  0  0  0  0  0  0  0  0  0  0  0
   -5.3237   11.0522   -7.4778 N   0  0  0  0  0  0  0  0  0  0  0  0
   -6.0989   12.3594   -7.2056 C   0  0  0  0  0  0  0  0  0  0  0  0
   -7.2581   12.0899   -6.3249 C   0  0  0  0  0  0  0  0  0  0  0  0
   -6.7827   11.5012   -5.1038 O   0  0  0  0  0  0  0  0  0  0  0  0
   -5.0527    7.6880   -1.8359 O   0  0  0  0  0  0  0  0  0  0  0  0
   -2.2222    7.7787   -1.7065 C   0  0  0  0  0  0  0  0  0  0  0  0
   -1.4194    9.0783   -1.4234 C   0  0  0  0  0  0  0  0  0  0  0  0
   -0.6900    9.5353   -2.6766 C   0  0  0  0  0  0  0  0  0  0  0  0
   -0.7294    9.0179   -5.8863 O   0  0  0  0  0  0  0  0  0  0  0  0
   -2.1701   11.8953   -9.0741 C   0  0  0  0  0  0  0  0  0  0  0  0
   -2.1297   11.0124  -10.1465 C   0  0  0  0  0  0  0  0  0  0  0  0
   -3.1786   10.0804  -10.3165 C   0  0  0  0  0  0  0  0  0  0  0  0
   -4.2122   10.0916   -9.4012 C   0  0  0  0  0  0  0  0  0  0  0  0
   -4.2431   11.0349   -8.3541 C   0  0  0  0  0  0  0  0  0  0  0  0
   -3.1626   11.9048   -8.2039 C   0  0  0  0  0  0  0  0  0  0  0  0
   -9.1900    7.7113   -9.0968 F   0  0  0  0  0  0  0  0  0  0  0  0
  1  2  1  0  0  0  0
  2  3  1  0  0  0  0
  2  5  1  0  0  0  0
  3  4  1  0  0  0  0
  5  6  4  0  0  0  0
  5 10  4  0  0  0  0
  6  7  4  0  0  0  0
  7  8  4  0  0  0  0
  8  9  4  0  0  0  0
  9 10  4  0  0  0  0
 10 11  1  0  0  0  0
 11 12  4  0  0  0  0
 11 15  4  0  0  0  0
 12 13  1  0  0  0  0
 12 68  4  0  0  0  0
 13 14  1  0  0  0  0
 15 16  1  0  0  0  0
 15 67  4  0  0  0  0
 16 17  1  0  0  0  0
 17 18  1  0  0  0  0
 17 19  1  0  0  0  0
 17 20  1  0  0  0  0
 20 21  1  0  0  0  0
 21 22  1  0  0  0  0
 22 23  1  0  0  0  0
 22 66  2  0  0  0  0
 23 24  1  0  0  0  0
 23 65  1  0  0  0  0
 24 25  1  0  0  0  0
 25 26  1  0  0  0  0
 25 63  1  0  0  0  0
 26 27  1  0  0  0  0
 26 62  2  0  0  0  0
 27 28  1  0  0  0  0
 27 55  1  0  0  0  0
 28 29  1  0  0  0  0
 29 30  1  0  0  0  0
 29 54  2  0  0  0  0
 30 31  1  0  0  0  0
 30 34  1  0  0  0  0
 31 32  1  0  0  0  0
 31 33  1  0  0  0  0
 34 35  1  0  0  0  0
 34 53  1  0  0  0  0
 35 36  1  0  0  0  0
 35 52  2  0  0  0  0
 36 37  1  0  0  0  0
 36 51  1  0  0  0  0
 36 73  1  0  0  0  0
 37 38  1  0  0  0  0
 38 39  1  0  0  0  0
 39 40  1  0  0  0  0
 39 50  1  0  0  0  0
 40 41  1  0  0  0  0
 40 49  2  0  0  0  0
 41 42  1  0  0  0  0
 42 43  1  0  0  0  0
 43 44  1  0  0  0  0
 43 47  1  0  0  0  0
 43 48  1  0  0  0  0
 44 45  1  0  0  0  0
 44 46  1  0  0  0  0
 50 51  1  0  0  0  0
 55 56  1  0  0  0  0
 56 57  1  0  0  0  0
 56 61  1  0  0  0  0
 57 58  1  0  0  0  0
 58 59  1  0  0  0  0
 58 71  1  0  0  0  0
 59 60  1  0  0  0  0
 60 61  1  0  0  0  0
 63 64  1  0  0  0  0
 64 65  1  0  0  0  0
 67 68  4  0  0  0  0
 67 72  4  0  0  0  0
 68 69  4  0  0  0  0
 69 70  4  0  0  0  0
 70 71  4  0  0  0  0
 71 72  4  0  0  0  0
M  END
$$$$
