mol_ETKDG4_124
  PyMOL3.1          3D                             0

 73 79  0  0  0  0  0  0  0  0999 V2000
   -0.0152   16.6097  -11.3583 C   0  0  0  0  0  0  0  0  0  0  0  0
   -0.1150   15.1045  -11.3332 C   0  0  0  0  0  0  0  0  0  0  0  0
   -0.4831   14.5416  -12.5606 O   0  0  0  0  0  0  0  0  0  0  0  0
   -1.8612   14.5583  -12.8964 C   0  0  0  0  0  0  0  0  0  0  0  0
    1.1518   14.4515  -10.9361 C   0  0  0  0  0  0  0  0  0  0  0  0
    2.2996   15.0323  -11.2461 N   0  0  0  0  0  0  0  0  0  0  0  0
    3.4687   14.4374  -10.9271 C   0  0  0  0  0  0  0  0  0  0  0  0
    3.4987   13.2295  -10.2503 C   0  0  0  0  0  0  0  0  0  0  0  0
    2.3146   12.6386   -9.9289 C   0  0  0  0  0  0  0  0  0  0  0  0
    1.1454   13.2363  -10.2892 C   0  0  0  0  0  0  0  0  0  0  0  0
   -0.0992   12.6133   -9.9328 C   0  0  0  0  0  0  0  0  0  0  0  0
   -0.7116   11.6235  -10.6438 N   0  0  0  0  0  0  0  0  0  0  0  0
   -0.2278   10.9596  -11.8582 C   0  0  0  0  0  0  0  0  0  0  0  0
    0.3842    9.5975  -11.5006 C   0  0  0  0  0  0  0  0  0  0  0  0
   -0.8963   12.9623   -8.8552 C   0  0  0  0  0  0  0  0  0  0  0  0
   -0.6902   13.9845   -7.7894 C   0  0  0  0  0  0  0  0  0  0  0  0
   -0.0323   13.4601   -6.4841 C   0  0  0  0  0  0  0  0  0  0  0  0
   -0.7025   14.1402   -5.2954 C   0  0  0  0  0  0  0  0  0  0  0  0
    1.4680   13.8117   -6.4817 C   0  0  0  0  0  0  0  0  0  0  0  0
   -0.0793   12.0248   -6.3163 C   0  0  0  0  0  0  0  0  0  0  0  0
   -0.7331   11.4743   -5.1504 O   0  0  0  0  0  0  0  0  0  0  0  0
   -1.0523   10.1083   -5.0332 C   0  0  0  0  0  0  0  0  0  0  0  0
   -1.7597    9.7717   -3.7680 C   0  0  0  0  0  0  0  0  0  0  0  0
   -2.4475    8.5081   -3.9637 N   0  0  0  0  0  0  0  0  0  0  0  0
   -3.1342    8.0738   -2.8543 N   0  0  0  0  0  0  0  0  0  0  0  0
   -4.4932    7.9857   -2.8626 C   0  0  0  0  0  0  0  0  0  0  0  0
   -5.1957    8.2984   -4.1479 C   0  0  0  0  0  0  0  0  0  0  0  0
   -6.3716    7.4902   -4.3446 N   0  0  0  0  0  0  0  0  0  0  0  0
   -6.4450    6.5002   -5.2450 C   0  0  0  0  0  0  0  0  0  0  0  0
   -7.8013    5.9120   -5.3865 C   0  0  0  0  0  0  0  0  0  0  0  0
   -7.8673    4.4004   -5.0189 C   0  0  0  0  0  0  0  0  0  0  0  0
   -9.2642    3.8550   -5.2949 C   0  0  0  0  0  0  0  0  0  0  0  0
   -7.5361    4.2127   -3.5312 C   0  0  0  0  0  0  0  0  0  0  0  0
   -8.2745    6.1553   -6.7231 N   0  0  0  0  0  0  0  0  0  0  0  0
   -9.2322    7.0995   -6.8849 C   0  0  0  0  0  0  0  0  0  0  0  0
   -9.9598    7.2245   -8.1987 C   0  0  0  0  0  0  0  0  0  0  0  0
  -11.1929    8.1226   -8.0511 C   0  0  0  0  0  0  0  0  0  0  0  0
  -12.0429    8.0648   -9.2735 C   0  0  0  0  0  0  0  0  0  0  0  0
  -12.3064    6.6549   -9.6053 N   0  0  0  0  0  0  0  0  0  0  0  0
  -13.4967    6.0191   -9.5354 C   0  0  0  0  0  0  0  0  0  0  0  0
  -14.5355    6.6177   -8.8327 C   0  0  0  0  0  0  0  0  0  0  0  0
  -15.4299    7.0528   -8.2734 C   0  0  0  0  0  0  0  0  0  0  0  0
  -16.4626    7.6639   -7.4712 C   0  0  0  0  0  0  0  0  0  0  0  0
  -15.8400    8.6193   -6.5268 N   0  0  0  0  0  0  0  0  0  0  0  0
  -14.9790    7.9657   -5.5221 C   0  0  0  0  0  0  0  0  0  0  0  0
  -15.1440    9.7428   -7.1789 C   0  0  0  0  0  0  0  0  0  0  0  0
  -17.2037    6.5872   -6.6892 C   0  0  0  0  0  0  0  0  0  0  0  0
  -17.4265    8.4089   -8.4021 C   0  0  0  0  0  0  0  0  0  0  0  0
  -13.6480    4.9045  -10.0343 O   0  0  0  0  0  0  0  0  0  0  0  0
  -11.1732    5.8467   -9.8617 C   0  0  0  0  0  0  0  0  0  0  0  0
  -10.4516    5.8331   -8.5520 C   0  0  0  0  0  0  0  0  0  0  0  0
   -9.5433    7.8400   -5.9455 O   0  0  0  0  0  0  0  0  0  0  0  0
   -7.6504    5.3649   -7.8267 C   0  0  0  0  0  0  0  0  0  0  0  0
   -5.4820    6.1528   -5.9145 O   0  0  0  0  0  0  0  0  0  0  0  0
   -5.6362    9.7900   -4.0828 C   0  0  0  0  0  0  0  0  0  0  0  0
   -6.0837   10.2818   -5.4371 C   0  0  0  0  0  0  0  0  0  0  0  0
   -4.8569   10.5224   -6.2752 C   0  0  0  0  0  0  0  0  0  0  0  0
   -5.2311   11.1352   -7.5621 N   0  0  0  0  0  0  0  0  0  0  0  0
   -6.0659   12.4002   -7.3086 C   0  0  0  0  0  0  0  0  0  0  0  0
   -7.2705   12.0614   -6.5095 C   0  0  0  0  0  0  0  0  0  0  0  0
   -6.8512   11.4687   -5.2609 O   0  0  0  0  0  0  0  0  0  0  0  0
   -5.1337    7.7298   -1.8651 O   0  0  0  0  0  0  0  0  0  0  0  0
   -2.3064    7.8410   -1.6743 C   0  0  0  0  0  0  0  0  0  0  0  0
   -1.5359    9.1536   -1.3624 C   0  0  0  0  0  0  0  0  0  0  0  0
   -0.7921    9.6403   -2.5926 C   0  0  0  0  0  0  0  0  0  0  0  0
   -0.8361    9.1735   -5.8456 O   0  0  0  0  0  0  0  0  0  0  0  0
   -1.9913   12.1419   -8.9401 C   0  0  0  0  0  0  0  0  0  0  0  0
   -1.8537   11.3101  -10.0429 C   0  0  0  0  0  0  0  0  0  0  0  0
   -2.8753   10.3619  -10.3213 C   0  0  0  0  0  0  0  0  0  0  0  0
   -3.9758   10.3049   -9.4742 C   0  0  0  0  0  0  0  0  0  0  0  0
   -4.0969   11.1908   -8.3852 C   0  0  0  0  0  0  0  0  0  0  0  0
   -3.0559   12.0954   -8.1326 C   0  0  0  0  0  0  0  0  0  0  0  0
   -9.0958    7.7280   -9.1606 F   0  0  0  0  0  0  0  0  0  0  0  0
  1  2  1  0  0  0  0
  2  3  1  0  0  0  0
  2  5  1  0  0  0  0
  3  4  1  0  0  0  0
  5  6  4  0  0  0  0
  5 10  4  0  0  0  0
  6  7  4  0  0  0  0
  7  8  4  0  0  0  0
  8  9  4  0  0  0  0
  9 10  4  0  0  0  0
 10 11  1  0  0  0  0
 11 12  4  0  0  0  0
 11 15  4  0  0  0  0
 12 13  1  0  0  0  0
 12 68  4  0  0  0  0
 13 14  1  0  0  0  0
 15 16  1  0  0  0  0
 15 67  4  0  0  0  0
 16 17  1  0  0  0  0
 17 18  1  0  0  0  0
 17 19  1  0  0  0  0
 17 20  1  0  0  0  0
 20 21  1  0  0  0  0
 21 22  1  0  0  0  0
 22 23  1  0  0  0  0
 22 66  2  0  0  0  0
 23 24  1  0  0  0  0
 23 65  1  0  0  0  0
 24 25  1  0  0  0  0
 25 26  1  0  0  0  0
 25 63  1  0  0  0  0
 26 27  1  0  0  0  0
 26 62  2  0  0  0  0
 27 28  1  0  0  0  0
 27 55  1  0  0  0  0
 28 29  1  0  0  0  0
 29 30  1  0  0  0  0
 29 54  2  0  0  0  0
 30 31  1  0  0  0  0
 30 34  1  0  0  0  0
 31 32  1  0  0  0  0
 31 33  1  0  0  0  0
 34 35  1  0  0  0  0
 34 53  1  0  0  0  0
 35 36  1  0  0  0  0
 35 52  2  0  0  0  0
 36 37  1  0  0  0  0
 36 51  1  0  0  0  0
 36 73  1  0  0  0  0
 37 38  1  0  0  0  0
 38 39  1  0  0  0  0
 39 40  1  0  0  0  0
 39 50  1  0  0  0  0
 40 41  1  0  0  0  0
 40 49  2  0  0  0  0
 41 42  1  0  0  0  0
 42 43  1  0  0  0  0
 43 44  1  0  0  0  0
 43 47  1  0  0  0  0
 43 48  1  0  0  0  0
 44 45  1  0  0  0  0
 44 46  1  0  0  0  0
 50 51  1  0  0  0  0
 55 56  1  0  0  0  0
 56 57  1  0  0  0  0
 56 61  1  0  0  0  0
 57 58  1  0  0  0  0
 58 59  1  0  0  0  0
 58 71  1  0  0  0  0
 59 60  1  0  0  0  0
 60 61  1  0  0  0  0
 63 64  1  0  0  0  0
 64 65  1  0  0  0  0
 67 68  4  0  0  0  0
 67 72  4  0  0  0  0
 68 69  4  0  0  0  0
 69 70  4  0  0  0  0
 70 71  4  0  0  0  0
 71 72  4  0  0  0  0
M  END
$$$$
