mol_bioactive_20
  PyMOL3.1          3D                             0

 73 79  0  0  0  0  0  0  0  0999 V2000
    0.1477   14.7491  -13.6135 C   0  0  0  0  0  0  0  0  0  0  0  0
   -0.0482   14.3766  -12.1605 C   0  0  0  0  0  0  0  0  0  0  0  0
   -0.6095   15.3786  -11.3928 O   0  0  0  0  0  0  0  0  0  0  0  0
   -2.0248   15.5183  -11.3920 C   0  0  0  0  0  0  0  0  0  0  0  0
    1.2186   13.9893  -11.5021 C   0  0  0  0  0  0  0  0  0  0  0  0
    2.3453   14.5871  -11.8668 N   0  0  0  0  0  0  0  0  0  0  0  0
    3.5109   14.2582  -11.2887 C   0  0  0  0  0  0  0  0  0  0  0  0
    3.5681   13.2640  -10.3134 C   0  0  0  0  0  0  0  0  0  0  0  0
    2.4158   12.6413   -9.9470 C   0  0  0  0  0  0  0  0  0  0  0  0
    1.2376   13.0062  -10.5338 C   0  0  0  0  0  0  0  0  0  0  0  0
    0.0066   12.3865  -10.1158 C   0  0  0  0  0  0  0  0  0  0  0  0
   -0.6055   11.3841  -10.8013 N   0  0  0  0  0  0  0  0  0  0  0  0
   -0.1362   10.7047  -12.0163 C   0  0  0  0  0  0  0  0  0  0  0  0
    0.5029    9.3666  -11.6544 C   0  0  0  0  0  0  0  0  0  0  0  0
   -0.7687   12.7501   -9.0273 C   0  0  0  0  0  0  0  0  0  0  0  0
   -0.5526   13.7847   -7.9748 C   0  0  0  0  0  0  0  0  0  0  0  0
    0.1286   13.3045   -6.6559 C   0  0  0  0  0  0  0  0  0  0  0  0
   -0.5475   14.0143   -5.4813 C   0  0  0  0  0  0  0  0  0  0  0  0
    1.6265   13.6978   -6.6581 C   0  0  0  0  0  0  0  0  0  0  0  0
    0.1116   11.8824   -6.4465 C   0  0  0  0  0  0  0  0  0  0  0  0
   -0.5736   11.3499   -5.2704 O   0  0  0  0  0  0  0  0  0  0  0  0
   -0.8961    9.9925   -5.1141 C   0  0  0  0  0  0  0  0  0  0  0  0
   -1.6311    9.6914   -3.8403 C   0  0  0  0  0  0  0  0  0  0  0  0
   -2.3564    8.4470   -4.0152 N   0  0  0  0  0  0  0  0  0  0  0  0
   -3.0519    8.0328   -2.8998 N   0  0  0  0  0  0  0  0  0  0  0  0
   -4.4163    7.9601   -2.9057 C   0  0  0  0  0  0  0  0  0  0  0  0
   -5.1238    8.3315   -4.1865 C   0  0  0  0  0  0  0  0  0  0  0  0
   -6.3152    7.5237   -4.4193 N   0  0  0  0  0  0  0  0  0  0  0  0
   -6.3717    6.4755   -5.2506 C   0  0  0  0  0  0  0  0  0  0  0  0
   -7.7330    5.8844   -5.4092 C   0  0  0  0  0  0  0  0  0  0  0  0
   -7.8271    4.3792   -5.0092 C   0  0  0  0  0  0  0  0  0  0  0  0
   -9.2379    3.8586   -5.2802 C   0  0  0  0  0  0  0  0  0  0  0  0
   -7.5088    4.2133   -3.5170 C   0  0  0  0  0  0  0  0  0  0  0  0
   -8.1728    6.0912   -6.7553 N   0  0  0  0  0  0  0  0  0  0  0  0
   -9.1551    7.0011   -6.9724 C   0  0  0  0  0  0  0  0  0  0  0  0
   -9.8045    7.0947   -8.3253 C   0  0  0  0  0  0  0  0  0  0  0  0
  -11.0528    7.9632   -8.2861 C   0  0  0  0  0  0  0  0  0  0  0  0
  -11.7861    7.8791   -9.5801 C   0  0  0  0  0  0  0  0  0  0  0  0
  -11.9879    6.4648   -9.9259 N   0  0  0  0  0  0  0  0  0  0  0  0
  -13.1676    5.8178  -10.0248 C   0  0  0  0  0  0  0  0  0  0  0  0
  -14.3455    6.5018   -9.7680 C   0  0  0  0  0  0  0  0  0  0  0  0
  -15.3854    6.9406   -9.5939 C   0  0  0  0  0  0  0  0  0  0  0  0
  -16.6456    7.5383   -9.2949 C   0  0  0  0  0  0  0  0  0  0  0  0
  -16.5578    8.3820   -8.0967 N   0  0  0  0  0  0  0  0  0  0  0  0
  -15.7229    7.8531   -7.0153 C   0  0  0  0  0  0  0  0  0  0  0  0
  -16.3199    9.7968   -8.3191 C   0  0  0  0  0  0  0  0  0  0  0  0
  -17.6787    6.4396   -9.0258 C   0  0  0  0  0  0  0  0  0  0  0  0
  -17.0549    8.3679  -10.5154 C   0  0  0  0  0  0  0  0  0  0  0  0
  -13.2109    4.6272  -10.3160 O   0  0  0  0  0  0  0  0  0  0  0  0
  -10.8296    5.6627  -10.0445 C   0  0  0  0  0  0  0  0  0  0  0  0
  -10.2326    5.6893   -8.6868 C   0  0  0  0  0  0  0  0  0  0  0  0
   -9.5499    7.7315   -6.0549 O   0  0  0  0  0  0  0  0  0  0  0  0
   -7.4836    5.2962   -7.8109 C   0  0  0  0  0  0  0  0  0  0  0  0
   -5.3958    6.0768   -5.8730 O   0  0  0  0  0  0  0  0  0  0  0  0
   -5.5233    9.8287   -4.0638 C   0  0  0  0  0  0  0  0  0  0  0  0
   -5.5568   10.6638   -5.3154 C   0  0  0  0  0  0  0  0  0  0  0  0
   -4.9986   10.0412   -6.5821 C   0  0  0  0  0  0  0  0  0  0  0  0
   -5.1810   10.9300   -7.7331 N   0  0  0  0  0  0  0  0  0  0  0  0
   -5.9211   12.2333   -7.4303 C   0  0  0  0  0  0  0  0  0  0  0  0
   -7.0772   12.0166   -6.5985 C   0  0  0  0  0  0  0  0  0  0  0  0
   -6.9023   11.0717   -5.5406 O   0  0  0  0  0  0  0  0  0  0  0  0
   -5.0636    7.7143   -1.9115 O   0  0  0  0  0  0  0  0  0  0  0  0
   -2.2293    7.8137   -1.7095 C   0  0  0  0  0  0  0  0  0  0  0  0
   -1.4373    9.1151   -1.4186 C   0  0  0  0  0  0  0  0  0  0  0  0
   -0.6795    9.5645   -2.6469 C   0  0  0  0  0  0  0  0  0  0  0  0
   -0.6593    9.0458   -5.9051 O   0  0  0  0  0  0  0  0  0  0  0  0
   -1.8628   11.9188   -9.0903 C   0  0  0  0  0  0  0  0  0  0  0  0
   -1.7348   11.0768  -10.1821 C   0  0  0  0  0  0  0  0  0  0  0  0
   -2.7532   10.1230  -10.4465 C   0  0  0  0  0  0  0  0  0  0  0  0
   -3.8548   10.0738   -9.5931 C   0  0  0  0  0  0  0  0  0  0  0  0
   -3.9840   10.9753   -8.5192 C   0  0  0  0  0  0  0  0  0  0  0  0
   -2.9224   11.8744   -8.2749 C   0  0  0  0  0  0  0  0  0  0  0  0
   -8.8948    7.6065   -9.2374 F   0  0  0  0  0  0  0  0  0  0  0  0
  1  2  1  0  0  0  0
  2  3  1  0  0  0  0
  2  5  1  0  0  0  0
  3  4  1  0  0  0  0
  5  6  4  0  0  0  0
  5 10  4  0  0  0  0
  6  7  4  0  0  0  0
  7  8  4  0  0  0  0
  8  9  4  0  0  0  0
  9 10  4  0  0  0  0
 10 11  1  0  0  0  0
 11 12  4  0  0  0  0
 11 15  4  0  0  0  0
 12 13  1  0  0  0  0
 12 68  4  0  0  0  0
 13 14  1  0  0  0  0
 15 16  1  0  0  0  0
 15 67  4  0  0  0  0
 16 17  1  0  0  0  0
 17 18  1  0  0  0  0
 17 19  1  0  0  0  0
 17 20  1  0  0  0  0
 20 21  1  0  0  0  0
 21 22  1  0  0  0  0
 22 23  1  0  0  0  0
 22 66  2  0  0  0  0
 23 24  1  0  0  0  0
 23 65  1  0  0  0  0
 24 25  1  0  0  0  0
 25 26  1  0  0  0  0
 25 63  1  0  0  0  0
 26 27  1  0  0  0  0
 26 62  2  0  0  0  0
 27 28  1  0  0  0  0
 27 55  1  0  0  0  0
 28 29  1  0  0  0  0
 29 30  1  0  0  0  0
 29 54  2  0  0  0  0
 30 31  1  0  0  0  0
 30 34  1  0  0  0  0
 31 32  1  0  0  0  0
 31 33  1  0  0  0  0
 34 35  1  0  0  0  0
 34 53  1  0  0  0  0
 35 36  1  0  0  0  0
 35 52  2  0  0  0  0
 36 37  1  0  0  0  0
 36 51  1  0  0  0  0
 36 73  1  0  0  0  0
 37 38  1  0  0  0  0
 38 39  1  0  0  0  0
 39 40  1  0  0  0  0
 39 50  1  0  0  0  0
 40 41  1  0  0  0  0
 40 49  2  0  0  0  0
 41 42  1  0  0  0  0
 42 43  1  0  0  0  0
 43 44  1  0  0  0  0
 43 47  1  0  0  0  0
 43 48  1  0  0  0  0
 44 45  1  0  0  0  0
 44 46  1  0  0  0  0
 50 51  1  0  0  0  0
 55 56  1  0  0  0  0
 56 57  1  0  0  0  0
 56 61  1  0  0  0  0
 57 58  1  0  0  0  0
 58 59  1  0  0  0  0
 58 71  1  0  0  0  0
 59 60  1  0  0  0  0
 60 61  1  0  0  0  0
 63 64  1  0  0  0  0
 64 65  1  0  0  0  0
 67 68  4  0  0  0  0
 67 72  4  0  0  0  0
 68 69  4  0  0  0  0
 69 70  4  0  0  0  0
 70 71  4  0  0  0  0
 71 72  4  0  0  0  0
M  END
$$$$
