mol_bioactive_21
  PyMOL3.1          3D                             0

 73 79  0  0  0  0  0  0  0  0999 V2000
   -0.2234   15.2043  -13.0235 C   0  0  0  0  0  0  0  0  0  0  0  0
   -0.1340   15.0286  -11.5173 C   0  0  0  0  0  0  0  0  0  0  0  0
   -0.1851   16.2320  -10.8033 O   0  0  0  0  0  0  0  0  0  0  0  0
   -1.4428   16.6941  -10.3435 C   0  0  0  0  0  0  0  0  0  0  0  0
    1.1220   14.3537  -11.1326 C   0  0  0  0  0  0  0  0  0  0  0  0
    2.2596   14.9095  -11.5104 N   0  0  0  0  0  0  0  0  0  0  0  0
    3.4326   14.3382  -11.1936 C   0  0  0  0  0  0  0  0  0  0  0  0
    3.4737   13.1356  -10.4778 C   0  0  0  0  0  0  0  0  0  0  0  0
    2.3039   12.5547  -10.1009 C   0  0  0  0  0  0  0  0  0  0  0  0
    1.1234   13.1604  -10.4236 C   0  0  0  0  0  0  0  0  0  0  0  0
   -0.1138   12.5657   -9.9956 C   0  0  0  0  0  0  0  0  0  0  0  0
   -0.7618   11.5918  -10.6912 N   0  0  0  0  0  0  0  0  0  0  0  0
   -0.3352   10.9428  -11.9353 C   0  0  0  0  0  0  0  0  0  0  0  0
    0.2295    9.5505  -11.6371 C   0  0  0  0  0  0  0  0  0  0  0  0
   -0.8648   12.9178   -8.8882 C   0  0  0  0  0  0  0  0  0  0  0  0
   -0.6106   13.9202   -7.8197 C   0  0  0  0  0  0  0  0  0  0  0  0
    0.1710   13.3889   -6.5773 C   0  0  0  0  0  0  0  0  0  0  0  0
   -0.3437   14.1168   -5.3384 C   0  0  0  0  0  0  0  0  0  0  0  0
    1.6747   13.6908   -6.7332 C   0  0  0  0  0  0  0  0  0  0  0  0
    0.0849   11.9649   -6.3827 C   0  0  0  0  0  0  0  0  0  0  0  0
   -0.6272   11.4425   -5.2186 O   0  0  0  0  0  0  0  0  0  0  0  0
   -0.9465   10.0793   -5.0716 C   0  0  0  0  0  0  0  0  0  0  0  0
   -1.6700    9.7647   -3.8007 C   0  0  0  0  0  0  0  0  0  0  0  0
   -2.4082    8.5304   -3.9970 N   0  0  0  0  0  0  0  0  0  0  0  0
   -3.0859    8.0925   -2.8825 N   0  0  0  0  0  0  0  0  0  0  0  0
   -4.4478    8.0314   -2.8651 C   0  0  0  0  0  0  0  0  0  0  0  0
   -5.1798    8.4611   -4.1150 C   0  0  0  0  0  0  0  0  0  0  0  0
   -6.3724    7.6609   -4.3644 N   0  0  0  0  0  0  0  0  0  0  0  0
   -6.4395    6.6414   -5.2346 C   0  0  0  0  0  0  0  0  0  0  0  0
   -7.8113    6.0583   -5.3955 C   0  0  0  0  0  0  0  0  0  0  0  0
   -7.8893    4.5397   -5.0549 C   0  0  0  0  0  0  0  0  0  0  0  0
   -9.3036    4.0244   -5.3011 C   0  0  0  0  0  0  0  0  0  0  0  0
   -7.5056    4.3101   -3.5869 C   0  0  0  0  0  0  0  0  0  0  0  0
   -8.2863    6.3263   -6.7301 N   0  0  0  0  0  0  0  0  0  0  0  0
   -9.2086    7.3123   -6.9002 C   0  0  0  0  0  0  0  0  0  0  0  0
   -9.8750    7.4956   -8.2428 C   0  0  0  0  0  0  0  0  0  0  0  0
  -10.9361    8.5834   -8.2225 C   0  0  0  0  0  0  0  0  0  0  0  0
  -11.6502    8.6309   -9.5292 C   0  0  0  0  0  0  0  0  0  0  0  0
  -12.1270    7.2807   -9.8959 N   0  0  0  0  0  0  0  0  0  0  0  0
  -13.4057    6.9442  -10.1807 C   0  0  0  0  0  0  0  0  0  0  0  0
  -14.4506    7.8513   -9.9658 C   0  0  0  0  0  0  0  0  0  0  0  0
  -15.4070    8.4851   -9.8565 C   0  0  0  0  0  0  0  0  0  0  0  0
  -16.5484    9.3115   -9.5968 C   0  0  0  0  0  0  0  0  0  0  0  0
  -16.1719   10.4723   -8.7827 N   0  0  0  0  0  0  0  0  0  0  0  0
  -15.4918   10.1287   -7.5267 C   0  0  0  0  0  0  0  0  0  0  0  0
  -15.4852   11.5368   -9.5009 C   0  0  0  0  0  0  0  0  0  0  0  0
  -17.5999    8.5015   -8.8345 C   0  0  0  0  0  0  0  0  0  0  0  0
  -17.1207    9.7749  -10.9408 C   0  0  0  0  0  0  0  0  0  0  0  0
  -13.6631    5.8225  -10.5979 O   0  0  0  0  0  0  0  0  0  0  0  0
  -11.1619    6.2222   -9.9030 C   0  0  0  0  0  0  0  0  0  0  0  0
  -10.5676    6.1847   -8.5517 C   0  0  0  0  0  0  0  0  0  0  0  0
   -9.5292    8.0386   -5.9515 O   0  0  0  0  0  0  0  0  0  0  0  0
   -7.6956    5.5170   -7.8351 C   0  0  0  0  0  0  0  0  0  0  0  0
   -5.4721    6.2638   -5.8813 O   0  0  0  0  0  0  0  0  0  0  0  0
   -5.5720    9.9498   -3.9151 C   0  0  0  0  0  0  0  0  0  0  0  0
   -5.6590   10.8138   -5.1472 C   0  0  0  0  0  0  0  0  0  0  0  0
   -5.0683   10.2337   -6.4157 C   0  0  0  0  0  0  0  0  0  0  0  0
   -5.2913   11.1195   -7.5576 N   0  0  0  0  0  0  0  0  0  0  0  0
   -6.0358   12.4011   -7.2528 C   0  0  0  0  0  0  0  0  0  0  0  0
   -7.1863   12.1813   -6.3803 C   0  0  0  0  0  0  0  0  0  0  0  0
   -7.0208   11.1551   -5.3934 O   0  0  0  0  0  0  0  0  0  0  0  0
   -5.0784    7.7463   -1.8743 O   0  0  0  0  0  0  0  0  0  0  0  0
   -2.2505    7.8406   -1.7114 C   0  0  0  0  0  0  0  0  0  0  0  0
   -1.4478    9.1281   -1.4012 C   0  0  0  0  0  0  0  0  0  0  0  0
   -0.7032    9.5942   -2.6265 C   0  0  0  0  0  0  0  0  0  0  0  0
   -0.7160    9.1357   -5.8684 O   0  0  0  0  0  0  0  0  0  0  0  0
   -1.9777   12.1148   -8.9434 C   0  0  0  0  0  0  0  0  0  0  0  0
   -1.8841   11.2922  -10.0541 C   0  0  0  0  0  0  0  0  0  0  0  0
   -2.9259   10.3614  -10.3178 C   0  0  0  0  0  0  0  0  0  0  0  0
   -4.0118   10.3111   -9.4502 C   0  0  0  0  0  0  0  0  0  0  0  0
   -4.1093   11.1857   -8.3569 C   0  0  0  0  0  0  0  0  0  0  0  0
   -3.0378   12.0724   -8.1065 C   0  0  0  0  0  0  0  0  0  0  0  0
   -8.9079    7.8148   -9.1867 F   0  0  0  0  0  0  0  0  0  0  0  0
  1  2  1  0  0  0  0
  2  3  1  0  0  0  0
  2  5  1  0  0  0  0
  3  4  1  0  0  0  0
  5  6  4  0  0  0  0
  5 10  4  0  0  0  0
  6  7  4  0  0  0  0
  7  8  4  0  0  0  0
  8  9  4  0  0  0  0
  9 10  4  0  0  0  0
 10 11  1  0  0  0  0
 11 12  4  0  0  0  0
 11 15  4  0  0  0  0
 12 13  1  0  0  0  0
 12 68  4  0  0  0  0
 13 14  1  0  0  0  0
 15 16  1  0  0  0  0
 15 67  4  0  0  0  0
 16 17  1  0  0  0  0
 17 18  1  0  0  0  0
 17 19  1  0  0  0  0
 17 20  1  0  0  0  0
 20 21  1  0  0  0  0
 21 22  1  0  0  0  0
 22 23  1  0  0  0  0
 22 66  2  0  0  0  0
 23 24  1  0  0  0  0
 23 65  1  0  0  0  0
 24 25  1  0  0  0  0
 25 26  1  0  0  0  0
 25 63  1  0  0  0  0
 26 27  1  0  0  0  0
 26 62  2  0  0  0  0
 27 28  1  0  0  0  0
 27 55  1  0  0  0  0
 28 29  1  0  0  0  0
 29 30  1  0  0  0  0
 29 54  2  0  0  0  0
 30 31  1  0  0  0  0
 30 34  1  0  0  0  0
 31 32  1  0  0  0  0
 31 33  1  0  0  0  0
 34 35  1  0  0  0  0
 34 53  1  0  0  0  0
 35 36  1  0  0  0  0
 35 52  2  0  0  0  0
 36 37  1  0  0  0  0
 36 51  1  0  0  0  0
 36 73  1  0  0  0  0
 37 38  1  0  0  0  0
 38 39  1  0  0  0  0
 39 40  1  0  0  0  0
 39 50  1  0  0  0  0
 40 41  1  0  0  0  0
 40 49  2  0  0  0  0
 41 42  1  0  0  0  0
 42 43  1  0  0  0  0
 43 44  1  0  0  0  0
 43 47  1  0  0  0  0
 43 48  1  0  0  0  0
 44 45  1  0  0  0  0
 44 46  1  0  0  0  0
 50 51  1  0  0  0  0
 55 56  1  0  0  0  0
 56 57  1  0  0  0  0
 56 61  1  0  0  0  0
 57 58  1  0  0  0  0
 58 59  1  0  0  0  0
 58 71  1  0  0  0  0
 59 60  1  0  0  0  0
 60 61  1  0  0  0  0
 63 64  1  0  0  0  0
 64 65  1  0  0  0  0
 67 68  4  0  0  0  0
 67 72  4  0  0  0  0
 68 69  4  0  0  0  0
 69 70  4  0  0  0  0
 70 71  4  0  0  0  0
 71 72  4  0  0  0  0
M  END
$$$$
