mol_ETKDG1_30
  PyMOL3.1          3D                             0

 73 79  0  0  0  0  0  0  0  0999 V2000
   -0.1049   16.4261  -11.6103 C   0  0  0  0  0  0  0  0  0  0  0  0
   -0.0646   14.9187  -11.6581 C   0  0  0  0  0  0  0  0  0  0  0  0
   -0.2370   14.3707  -12.9327 O   0  0  0  0  0  0  0  0  0  0  0  0
   -1.5700   14.2850  -13.4166 C   0  0  0  0  0  0  0  0  0  0  0  0
    1.2059   14.3830  -11.1235 C   0  0  0  0  0  0  0  0  0  0  0  0
    2.3398   14.9815  -11.4502 N   0  0  0  0  0  0  0  0  0  0  0  0
    3.5096   14.5136  -11.0037 C   0  0  0  0  0  0  0  0  0  0  0  0
    3.5632   13.3939  -10.1722 C   0  0  0  0  0  0  0  0  0  0  0  0
    2.4062   12.7780   -9.8387 C   0  0  0  0  0  0  0  0  0  0  0  0
    1.2283   13.2621  -10.3303 C   0  0  0  0  0  0  0  0  0  0  0  0
    0.0012   12.6168   -9.9705 C   0  0  0  0  0  0  0  0  0  0  0  0
   -0.5898   11.6223  -10.6886 N   0  0  0  0  0  0  0  0  0  0  0  0
   -0.0798   10.9625  -11.8937 C   0  0  0  0  0  0  0  0  0  0  0  0
    0.5344    9.6147  -11.5021 C   0  0  0  0  0  0  0  0  0  0  0  0
   -0.8080   12.9527   -8.8921 C   0  0  0  0  0  0  0  0  0  0  0  0
   -0.6270   13.9701   -7.8227 C   0  0  0  0  0  0  0  0  0  0  0  0
    0.0277   13.4612   -6.5120 C   0  0  0  0  0  0  0  0  0  0  0  0
   -0.6793   14.1229   -5.3248 C   0  0  0  0  0  0  0  0  0  0  0  0
    1.5216   13.8369   -6.4539 C   0  0  0  0  0  0  0  0  0  0  0  0
    0.0180   12.0198   -6.3357 C   0  0  0  0  0  0  0  0  0  0  0  0
   -0.6647   11.4591   -5.1826 O   0  0  0  0  0  0  0  0  0  0  0  0
   -0.9535   10.0924   -5.0629 C   0  0  0  0  0  0  0  0  0  0  0  0
   -1.6798    9.7579   -3.7999 C   0  0  0  0  0  0  0  0  0  0  0  0
   -2.3908    8.5023   -4.0038 N   0  0  0  0  0  0  0  0  0  0  0  0
   -3.0724    8.0655   -2.8946 N   0  0  0  0  0  0  0  0  0  0  0  0
   -4.4265    7.9784   -2.8939 C   0  0  0  0  0  0  0  0  0  0  0  0
   -5.1323    8.2887   -4.1862 C   0  0  0  0  0  0  0  0  0  0  0  0
   -6.3206    7.4912   -4.3803 N   0  0  0  0  0  0  0  0  0  0  0  0
   -6.4076    6.5273   -5.2808 C   0  0  0  0  0  0  0  0  0  0  0  0
   -7.7685    5.9503   -5.4338 C   0  0  0  0  0  0  0  0  0  0  0  0
   -7.8443    4.4354   -5.0795 C   0  0  0  0  0  0  0  0  0  0  0  0
   -9.2353    3.9037   -5.3504 C   0  0  0  0  0  0  0  0  0  0  0  0
   -7.5009    4.2415   -3.5925 C   0  0  0  0  0  0  0  0  0  0  0  0
   -8.2174    6.2068   -6.7752 N   0  0  0  0  0  0  0  0  0  0  0  0
   -9.1585    7.1737   -6.9507 C   0  0  0  0  0  0  0  0  0  0  0  0
   -9.8432    7.3011   -8.2924 C   0  0  0  0  0  0  0  0  0  0  0  0
  -11.0699    8.2178   -8.2329 C   0  0  0  0  0  0  0  0  0  0  0  0
  -11.8444    8.1286   -9.5014 C   0  0  0  0  0  0  0  0  0  0  0  0
  -12.0950    6.7160   -9.8377 N   0  0  0  0  0  0  0  0  0  0  0  0
  -13.2801    6.0883   -9.9734 C   0  0  0  0  0  0  0  0  0  0  0  0
  -14.4667    6.7724   -9.7501 C   0  0  0  0  0  0  0  0  0  0  0  0
  -15.5326    7.1887   -9.6167 C   0  0  0  0  0  0  0  0  0  0  0  0
  -16.8257    7.7357   -9.3751 C   0  0  0  0  0  0  0  0  0  0  0  0
  -16.8392    8.4260   -8.0815 N   0  0  0  0  0  0  0  0  0  0  0  0
  -16.4376    7.5742   -6.9566 C   0  0  0  0  0  0  0  0  0  0  0  0
  -16.1579    9.7189   -8.0710 C   0  0  0  0  0  0  0  0  0  0  0  0
  -17.8538    6.5992   -9.3335 C   0  0  0  0  0  0  0  0  0  0  0  0
  -17.1398    8.7135  -10.5090 C   0  0  0  0  0  0  0  0  0  0  0  0
  -13.3312    4.9022  -10.2781 O   0  0  0  0  0  0  0  0  0  0  0  0
  -10.9604    5.8839   -9.9483 C   0  0  0  0  0  0  0  0  0  0  0  0
  -10.3481    5.9169   -8.6142 C   0  0  0  0  0  0  0  0  0  0  0  0
   -9.4860    7.9223   -6.0204 O   0  0  0  0  0  0  0  0  0  0  0  0
   -7.5861    5.4133   -7.8609 C   0  0  0  0  0  0  0  0  0  0  0  0
   -5.4495    6.1724   -5.9613 O   0  0  0  0  0  0  0  0  0  0  0  0
   -5.5679    9.7794   -4.1447 C   0  0  0  0  0  0  0  0  0  0  0  0
   -6.0031   10.2471   -5.5202 C   0  0  0  0  0  0  0  0  0  0  0  0
   -4.7654   10.4787   -6.3480 C   0  0  0  0  0  0  0  0  0  0  0  0
   -5.1272   11.0633   -7.6485 N   0  0  0  0  0  0  0  0  0  0  0  0
   -5.9951   12.3168   -7.4367 C   0  0  0  0  0  0  0  0  0  0  0  0
   -7.2057   11.9666   -6.6411 C   0  0  0  0  0  0  0  0  0  0  0  0
   -6.7837   11.4223   -5.3777 O   0  0  0  0  0  0  0  0  0  0  0  0
   -5.0717    7.7322   -1.9052 O   0  0  0  0  0  0  0  0  0  0  0  0
   -2.2501    7.8164   -1.7231 C   0  0  0  0  0  0  0  0  0  0  0  0
   -1.4684    9.1202   -1.3978 C   0  0  0  0  0  0  0  0  0  0  0  0
   -0.7185    9.6012   -2.6244 C   0  0  0  0  0  0  0  0  0  0  0  0
   -0.6954    9.1578   -5.8586 O   0  0  0  0  0  0  0  0  0  0  0  0
   -1.8901   12.1159   -8.9864 C   0  0  0  0  0  0  0  0  0  0  0  0
   -1.7289   11.2925  -10.0894 C   0  0  0  0  0  0  0  0  0  0  0  0
   -2.7322   10.3333  -10.3809 C   0  0  0  0  0  0  0  0  0  0  0  0
   -3.8382   10.2599   -9.5474 C   0  0  0  0  0  0  0  0  0  0  0  0
   -3.9887   11.1410   -8.4532 C   0  0  0  0  0  0  0  0  0  0  0  0
   -2.9611   12.0494   -8.1858 C   0  0  0  0  0  0  0  0  0  0  0  0
   -8.9374    7.7570   -9.2363 F   0  0  0  0  0  0  0  0  0  0  0  0
  1  2  1  0  0  0  0
  2  3  1  0  0  0  0
  2  5  1  0  0  0  0
  3  4  1  0  0  0  0
  5  6  4  0  0  0  0
  5 10  4  0  0  0  0
  6  7  4  0  0  0  0
  7  8  4  0  0  0  0
  8  9  4  0  0  0  0
  9 10  4  0  0  0  0
 10 11  1  0  0  0  0
 11 12  4  0  0  0  0
 11 15  4  0  0  0  0
 12 13  1  0  0  0  0
 12 68  4  0  0  0  0
 13 14  1  0  0  0  0
 15 16  1  0  0  0  0
 15 67  4  0  0  0  0
 16 17  1  0  0  0  0
 17 18  1  0  0  0  0
 17 19  1  0  0  0  0
 17 20  1  0  0  0  0
 20 21  1  0  0  0  0
 21 22  1  0  0  0  0
 22 23  1  0  0  0  0
 22 66  2  0  0  0  0
 23 24  1  0  0  0  0
 23 65  1  0  0  0  0
 24 25  1  0  0  0  0
 25 26  1  0  0  0  0
 25 63  1  0  0  0  0
 26 27  1  0  0  0  0
 26 62  2  0  0  0  0
 27 28  1  0  0  0  0
 27 55  1  0  0  0  0
 28 29  1  0  0  0  0
 29 30  1  0  0  0  0
 29 54  2  0  0  0  0
 30 31  1  0  0  0  0
 30 34  1  0  0  0  0
 31 32  1  0  0  0  0
 31 33  1  0  0  0  0
 34 35  1  0  0  0  0
 34 53  1  0  0  0  0
 35 36  1  0  0  0  0
 35 52  2  0  0  0  0
 36 37  1  0  0  0  0
 36 51  1  0  0  0  0
 36 73  1  0  0  0  0
 37 38  1  0  0  0  0
 38 39  1  0  0  0  0
 39 40  1  0  0  0  0
 39 50  1  0  0  0  0
 40 41  1  0  0  0  0
 40 49  2  0  0  0  0
 41 42  1  0  0  0  0
 42 43  1  0  0  0  0
 43 44  1  0  0  0  0
 43 47  1  0  0  0  0
 43 48  1  0  0  0  0
 44 45  1  0  0  0  0
 44 46  1  0  0  0  0
 50 51  1  0  0  0  0
 55 56  1  0  0  0  0
 56 57  1  0  0  0  0
 56 61  1  0  0  0  0
 57 58  1  0  0  0  0
 58 59  1  0  0  0  0
 58 71  1  0  0  0  0
 59 60  1  0  0  0  0
 60 61  1  0  0  0  0
 63 64  1  0  0  0  0
 64 65  1  0  0  0  0
 67 68  4  0  0  0  0
 67 72  4  0  0  0  0
 68 69  4  0  0  0  0
 69 70  4  0  0  0  0
 70 71  4  0  0  0  0
 71 72  4  0  0  0  0
M  END
$$$$
