mol_ETKDG3_81
  PyMOL3.1          3D                             0

 73 79  0  0  0  0  0  0  0  0999 V2000
   -0.2331   16.3342  -11.6801 C   0  0  0  0  0  0  0  0  0  0  0  0
   -0.3433   14.8301  -11.7188 C   0  0  0  0  0  0  0  0  0  0  0  0
   -0.7429   14.3061  -12.9532 O   0  0  0  0  0  0  0  0  0  0  0  0
   -2.1367   14.2510  -13.2278 C   0  0  0  0  0  0  0  0  0  0  0  0
    0.9266   14.1629  -11.3452 C   0  0  0  0  0  0  0  0  0  0  0  0
    2.0818   14.6856  -11.7419 N   0  0  0  0  0  0  0  0  0  0  0  0
    3.2500   14.0813  -11.4487 C   0  0  0  0  0  0  0  0  0  0  0  0
    3.2809   12.9015  -10.6976 C   0  0  0  0  0  0  0  0  0  0  0  0
    2.0931   12.3694  -10.2890 C   0  0  0  0  0  0  0  0  0  0  0  0
    0.9256   12.9922  -10.6250 C   0  0  0  0  0  0  0  0  0  0  0  0
   -0.3188   12.4320  -10.1846 C   0  0  0  0  0  0  0  0  0  0  0  0
   -1.0117   11.4795  -10.8734 N   0  0  0  0  0  0  0  0  0  0  0  0
   -0.6438   10.8133  -12.1314 C   0  0  0  0  0  0  0  0  0  0  0  0
   -0.0912    9.4156  -11.8505 C   0  0  0  0  0  0  0  0  0  0  0  0
   -1.0313   12.8181   -9.0596 C   0  0  0  0  0  0  0  0  0  0  0  0
   -0.7367   13.8429   -7.9930 C   0  0  0  0  0  0  0  0  0  0  0  0
    0.0338   13.3175   -6.7402 C   0  0  0  0  0  0  0  0  0  0  0  0
   -0.4675   14.0792   -5.5021 C   0  0  0  0  0  0  0  0  0  0  0  0
    1.5435   13.6081   -6.8960 C   0  0  0  0  0  0  0  0  0  0  0  0
   -0.0633   11.9073   -6.5192 C   0  0  0  0  0  0  0  0  0  0  0  0
   -0.7325   11.4047   -5.3253 O   0  0  0  0  0  0  0  0  0  0  0  0
   -1.0340   10.0433   -5.1495 C   0  0  0  0  0  0  0  0  0  0  0  0
   -1.7499    9.7511   -3.8774 C   0  0  0  0  0  0  0  0  0  0  0  0
   -2.4686    8.4916   -4.0517 N   0  0  0  0  0  0  0  0  0  0  0  0
   -3.1414    8.0696   -2.9341 N   0  0  0  0  0  0  0  0  0  0  0  0
   -4.5017    7.9770   -2.9282 C   0  0  0  0  0  0  0  0  0  0  0  0
   -5.2265    8.2967   -4.2155 C   0  0  0  0  0  0  0  0  0  0  0  0
   -6.3958    7.4601   -4.4252 N   0  0  0  0  0  0  0  0  0  0  0  0
   -6.4666    6.4804   -5.3443 C   0  0  0  0  0  0  0  0  0  0  0  0
   -7.8130    5.8549   -5.4732 C   0  0  0  0  0  0  0  0  0  0  0  0
   -7.8615    4.3546   -5.0380 C   0  0  0  0  0  0  0  0  0  0  0  0
   -9.2734    3.8044   -5.2189 C   0  0  0  0  0  0  0  0  0  0  0  0
   -7.4589    4.2265   -3.5647 C   0  0  0  0  0  0  0  0  0  0  0  0
   -8.3060    5.9962   -6.8248 N   0  0  0  0  0  0  0  0  0  0  0  0
   -9.3248    6.8789   -7.0242 C   0  0  0  0  0  0  0  0  0  0  0  0
  -10.1067    6.8383   -8.3217 C   0  0  0  0  0  0  0  0  0  0  0  0
  -11.3380    7.7489   -8.2818 C   0  0  0  0  0  0  0  0  0  0  0  0
  -12.2067    7.5202   -9.4775 C   0  0  0  0  0  0  0  0  0  0  0  0
  -12.4823    6.0784   -9.6399 N   0  0  0  0  0  0  0  0  0  0  0  0
  -13.7114    5.4714   -9.6323 C   0  0  0  0  0  0  0  0  0  0  0  0
  -14.8816    6.1816   -9.3466 C   0  0  0  0  0  0  0  0  0  0  0  0
  -15.9453    6.5821   -9.1362 C   0  0  0  0  0  0  0  0  0  0  0  0
  -17.2406    7.1142   -8.8006 C   0  0  0  0  0  0  0  0  0  0  0  0
  -17.3624    7.2842   -7.3390 N   0  0  0  0  0  0  0  0  0  0  0  0
  -16.9586    6.0949   -6.5620 C   0  0  0  0  0  0  0  0  0  0  0  0
  -16.7696    8.5275   -6.8135 C   0  0  0  0  0  0  0  0  0  0  0  0
  -18.3210    6.1284   -9.2887 C   0  0  0  0  0  0  0  0  0  0  0  0
  -17.4033    8.4541   -9.5231 C   0  0  0  0  0  0  0  0  0  0  0  0
  -13.7966    4.2649   -9.8549 O   0  0  0  0  0  0  0  0  0  0  0  0
  -11.3603    5.2269   -9.7381 C   0  0  0  0  0  0  0  0  0  0  0  0
  -10.6097    5.4092   -8.4663 C   0  0  0  0  0  0  0  0  0  0  0  0
   -9.6515    7.6734   -6.1325 O   0  0  0  0  0  0  0  0  0  0  0  0
   -7.6680    5.1570   -7.8824 C   0  0  0  0  0  0  0  0  0  0  0  0
   -5.5050    6.1555   -6.0294 O   0  0  0  0  0  0  0  0  0  0  0  0
   -5.6919    9.7750   -4.1154 C   0  0  0  0  0  0  0  0  0  0  0  0
   -6.1709   10.2910   -5.4450 C   0  0  0  0  0  0  0  0  0  0  0  0
   -4.9669   10.5376   -6.3078 C   0  0  0  0  0  0  0  0  0  0  0  0
   -5.3812   11.1478   -7.5828 N   0  0  0  0  0  0  0  0  0  0  0  0
   -6.1883   12.4213   -7.3178 C   0  0  0  0  0  0  0  0  0  0  0  0
   -7.3819   12.0894   -6.4799 C   0  0  0  0  0  0  0  0  0  0  0  0
   -6.9277   11.4881   -5.2411 O   0  0  0  0  0  0  0  0  0  0  0  0
   -5.1299    7.7283   -1.9259 O   0  0  0  0  0  0  0  0  0  0  0  0
   -2.3073    7.8437   -1.7586 C   0  0  0  0  0  0  0  0  0  0  0  0
   -1.5304    9.1604   -1.4555 C   0  0  0  0  0  0  0  0  0  0  0  0
   -0.7872    9.6178   -2.6987 C   0  0  0  0  0  0  0  0  0  0  0  0
   -0.7989    9.0748   -5.9254 O   0  0  0  0  0  0  0  0  0  0  0  0
   -2.1691   12.0451   -9.0882 C   0  0  0  0  0  0  0  0  0  0  0  0
   -2.1319   11.2151  -10.2078 C   0  0  0  0  0  0  0  0  0  0  0  0
   -3.2129   10.3123  -10.4493 C   0  0  0  0  0  0  0  0  0  0  0  0
   -4.2629   10.2994   -9.5552 C   0  0  0  0  0  0  0  0  0  0  0  0
   -4.2851   11.1788   -8.4482 C   0  0  0  0  0  0  0  0  0  0  0  0
   -3.2098   12.0338   -8.2224 C   0  0  0  0  0  0  0  0  0  0  0  0
   -9.2837    7.2006   -9.3780 F   0  0  0  0  0  0  0  0  0  0  0  0
  1  2  1  0  0  0  0
  2  3  1  0  0  0  0
  2  5  1  0  0  0  0
  3  4  1  0  0  0  0
  5  6  4  0  0  0  0
  5 10  4  0  0  0  0
  6  7  4  0  0  0  0
  7  8  4  0  0  0  0
  8  9  4  0  0  0  0
  9 10  4  0  0  0  0
 10 11  1  0  0  0  0
 11 12  4  0  0  0  0
 11 15  4  0  0  0  0
 12 13  1  0  0  0  0
 12 68  4  0  0  0  0
 13 14  1  0  0  0  0
 15 16  1  0  0  0  0
 15 67  4  0  0  0  0
 16 17  1  0  0  0  0
 17 18  1  0  0  0  0
 17 19  1  0  0  0  0
 17 20  1  0  0  0  0
 20 21  1  0  0  0  0
 21 22  1  0  0  0  0
 22 23  1  0  0  0  0
 22 66  2  0  0  0  0
 23 24  1  0  0  0  0
 23 65  1  0  0  0  0
 24 25  1  0  0  0  0
 25 26  1  0  0  0  0
 25 63  1  0  0  0  0
 26 27  1  0  0  0  0
 26 62  2  0  0  0  0
 27 28  1  0  0  0  0
 27 55  1  0  0  0  0
 28 29  1  0  0  0  0
 29 30  1  0  0  0  0
 29 54  2  0  0  0  0
 30 31  1  0  0  0  0
 30 34  1  0  0  0  0
 31 32  1  0  0  0  0
 31 33  1  0  0  0  0
 34 35  1  0  0  0  0
 34 53  1  0  0  0  0
 35 36  1  0  0  0  0
 35 52  2  0  0  0  0
 36 37  1  0  0  0  0
 36 51  1  0  0  0  0
 36 73  1  0  0  0  0
 37 38  1  0  0  0  0
 38 39  1  0  0  0  0
 39 40  1  0  0  0  0
 39 50  1  0  0  0  0
 40 41  1  0  0  0  0
 40 49  2  0  0  0  0
 41 42  1  0  0  0  0
 42 43  1  0  0  0  0
 43 44  1  0  0  0  0
 43 47  1  0  0  0  0
 43 48  1  0  0  0  0
 44 45  1  0  0  0  0
 44 46  1  0  0  0  0
 50 51  1  0  0  0  0
 55 56  1  0  0  0  0
 56 57  1  0  0  0  0
 56 61  1  0  0  0  0
 57 58  1  0  0  0  0
 58 59  1  0  0  0  0
 58 71  1  0  0  0  0
 59 60  1  0  0  0  0
 60 61  1  0  0  0  0
 63 64  1  0  0  0  0
 64 65  1  0  0  0  0
 67 68  4  0  0  0  0
 67 72  4  0  0  0  0
 68 69  4  0  0  0  0
 69 70  4  0  0  0  0
 70 71  4  0  0  0  0
 71 72  4  0  0  0  0
M  END
$$$$
