mol_ETKDG5_139
  PyMOL3.1          3D                             0

 73 79  0  0  0  0  0  0  0  0999 V2000
   -0.2281   15.1520  -13.2832 C   0  0  0  0  0  0  0  0  0  0  0  0
   -0.2597   14.9523  -11.7807 C   0  0  0  0  0  0  0  0  0  0  0  0
   -0.4885   16.1357  -11.0559 O   0  0  0  0  0  0  0  0  0  0  0  0
   -1.8177   16.4807  -10.7228 C   0  0  0  0  0  0  0  0  0  0  0  0
    1.0002   14.3811  -11.2708 C   0  0  0  0  0  0  0  0  0  0  0  0
    2.1380   14.9661  -11.6087 N   0  0  0  0  0  0  0  0  0  0  0  0
    3.3098   14.4761  -11.1641 C   0  0  0  0  0  0  0  0  0  0  0  0
    3.3559   13.3391  -10.3598 C   0  0  0  0  0  0  0  0  0  0  0  0
    2.1841   12.7337  -10.0251 C   0  0  0  0  0  0  0  0  0  0  0  0
    1.0073   13.2582  -10.4838 C   0  0  0  0  0  0  0  0  0  0  0  0
   -0.2390   12.6359  -10.0998 C   0  0  0  0  0  0  0  0  0  0  0  0
   -0.8719   11.6819  -10.8320 N   0  0  0  0  0  0  0  0  0  0  0  0
   -0.4285   11.0845  -12.0910 C   0  0  0  0  0  0  0  0  0  0  0  0
    0.1007    9.6699  -11.8479 C   0  0  0  0  0  0  0  0  0  0  0  0
   -1.0044   12.9662   -8.9885 C   0  0  0  0  0  0  0  0  0  0  0  0
   -0.7704   13.9617   -7.9034 C   0  0  0  0  0  0  0  0  0  0  0  0
   -0.0917   13.4060   -6.6073 C   0  0  0  0  0  0  0  0  0  0  0  0
   -0.7406   14.0954   -5.4019 C   0  0  0  0  0  0  0  0  0  0  0  0
    1.4178   13.7494   -6.5987 C   0  0  0  0  0  0  0  0  0  0  0  0
   -0.1618   11.9867   -6.4609 C   0  0  0  0  0  0  0  0  0  0  0  0
   -0.7802   11.4230   -5.2718 O   0  0  0  0  0  0  0  0  0  0  0  0
   -0.9953   10.0423   -5.1119 C   0  0  0  0  0  0  0  0  0  0  0  0
   -1.7193    9.7142   -3.8508 C   0  0  0  0  0  0  0  0  0  0  0  0
   -2.4342    8.4655   -4.0465 N   0  0  0  0  0  0  0  0  0  0  0  0
   -3.1148    8.0374   -2.9285 N   0  0  0  0  0  0  0  0  0  0  0  0
   -4.4753    7.9419   -2.9333 C   0  0  0  0  0  0  0  0  0  0  0  0
   -5.1826    8.2448   -4.2301 C   0  0  0  0  0  0  0  0  0  0  0  0
   -6.3627    7.4327   -4.4235 N   0  0  0  0  0  0  0  0  0  0  0  0
   -6.4574    6.4692   -5.3490 C   0  0  0  0  0  0  0  0  0  0  0  0
   -7.8223    5.8656   -5.4589 C   0  0  0  0  0  0  0  0  0  0  0  0
   -7.8515    4.3544   -5.0588 C   0  0  0  0  0  0  0  0  0  0  0  0
   -9.2429    3.7759   -5.2663 C   0  0  0  0  0  0  0  0  0  0  0  0
   -7.4641    4.2036   -3.5782 C   0  0  0  0  0  0  0  0  0  0  0  0
   -8.3537    6.0598   -6.7866 N   0  0  0  0  0  0  0  0  0  0  0  0
   -9.3289    6.9882   -6.9613 C   0  0  0  0  0  0  0  0  0  0  0  0
  -10.1629    6.9767   -8.2244 C   0  0  0  0  0  0  0  0  0  0  0  0
  -11.2493    8.0443   -8.2271 C   0  0  0  0  0  0  0  0  0  0  0  0
  -12.1451    7.8709   -9.4124 C   0  0  0  0  0  0  0  0  0  0  0  0
  -12.6524    6.4913   -9.4555 N   0  0  0  0  0  0  0  0  0  0  0  0
  -13.9636    6.1157   -9.3982 C   0  0  0  0  0  0  0  0  0  0  0  0
  -14.9711    7.0585   -9.1896 C   0  0  0  0  0  0  0  0  0  0  0  0
  -15.9219    7.6990   -9.0352 C   0  0  0  0  0  0  0  0  0  0  0  0
  -17.0579    8.5347   -8.7653 C   0  0  0  0  0  0  0  0  0  0  0  0
  -16.8360    9.3552   -7.5709 N   0  0  0  0  0  0  0  0  0  0  0  0
  -16.2591    8.6508   -6.4294 C   0  0  0  0  0  0  0  0  0  0  0  0
  -16.2491   10.6754   -7.7848 C   0  0  0  0  0  0  0  0  0  0  0  0
  -18.2964    7.6681   -8.5083 C   0  0  0  0  0  0  0  0  0  0  0  0
  -17.3008    9.4150   -9.9888 C   0  0  0  0  0  0  0  0  0  0  0  0
  -14.2719    4.9374   -9.5088 O   0  0  0  0  0  0  0  0  0  0  0  0
  -11.6714    5.4428   -9.4854 C   0  0  0  0  0  0  0  0  0  0  0  0
  -10.8530    5.6098   -8.2578 C   0  0  0  0  0  0  0  0  0  0  0  0
   -9.5894    7.8001   -6.0602 O   0  0  0  0  0  0  0  0  0  0  0  0
   -7.7862    5.2065   -7.8778 C   0  0  0  0  0  0  0  0  0  0  0  0
   -5.5161    6.1299   -6.0636 O   0  0  0  0  0  0  0  0  0  0  0  0
   -5.6321    9.7305   -4.1810 C   0  0  0  0  0  0  0  0  0  0  0  0
   -6.1152   10.2000   -5.5386 C   0  0  0  0  0  0  0  0  0  0  0  0
   -4.8998   10.4843   -6.3811 C   0  0  0  0  0  0  0  0  0  0  0  0
   -5.3135   11.0728   -7.6709 N   0  0  0  0  0  0  0  0  0  0  0  0
   -6.1987   12.2848   -7.4583 C   0  0  0  0  0  0  0  0  0  0  0  0
   -7.3943   11.8950   -6.6315 C   0  0  0  0  0  0  0  0  0  0  0  0
   -6.9380   11.3481   -5.3806 O   0  0  0  0  0  0  0  0  0  0  0  0
   -5.1123    7.6989   -1.9381 O   0  0  0  0  0  0  0  0  0  0  0  0
   -2.2862    7.8152   -1.7425 C   0  0  0  0  0  0  0  0  0  0  0  0
   -1.4981    9.1208   -1.4411 C   0  0  0  0  0  0  0  0  0  0  0  0
   -0.7497    9.5718   -2.6761 C   0  0  0  0  0  0  0  0  0  0  0  0
   -0.6749    9.0992   -5.8801 O   0  0  0  0  0  0  0  0  0  0  0  0
   -2.1075   12.1492   -9.0759 C   0  0  0  0  0  0  0  0  0  0  0  0
   -1.9978   11.3593  -10.2094 C   0  0  0  0  0  0  0  0  0  0  0  0
   -3.0364   10.4247  -10.5039 C   0  0  0  0  0  0  0  0  0  0  0  0
   -4.1128   10.3417   -9.6399 C   0  0  0  0  0  0  0  0  0  0  0  0
   -4.2012   11.1787   -8.5121 C   0  0  0  0  0  0  0  0  0  0  0  0
   -3.1673   12.0749   -8.2357 C   0  0  0  0  0  0  0  0  0  0  0  0
   -9.3399    7.1698   -9.3297 F   0  0  0  0  0  0  0  0  0  0  0  0
  1  2  1  0  0  0  0
  2  3  1  0  0  0  0
  2  5  1  0  0  0  0
  3  4  1  0  0  0  0
  5  6  4  0  0  0  0
  5 10  4  0  0  0  0
  6  7  4  0  0  0  0
  7  8  4  0  0  0  0
  8  9  4  0  0  0  0
  9 10  4  0  0  0  0
 10 11  1  0  0  0  0
 11 12  4  0  0  0  0
 11 15  4  0  0  0  0
 12 13  1  0  0  0  0
 12 68  4  0  0  0  0
 13 14  1  0  0  0  0
 15 16  1  0  0  0  0
 15 67  4  0  0  0  0
 16 17  1  0  0  0  0
 17 18  1  0  0  0  0
 17 19  1  0  0  0  0
 17 20  1  0  0  0  0
 20 21  1  0  0  0  0
 21 22  1  0  0  0  0
 22 23  1  0  0  0  0
 22 66  2  0  0  0  0
 23 24  1  0  0  0  0
 23 65  1  0  0  0  0
 24 25  1  0  0  0  0
 25 26  1  0  0  0  0
 25 63  1  0  0  0  0
 26 27  1  0  0  0  0
 26 62  2  0  0  0  0
 27 28  1  0  0  0  0
 27 55  1  0  0  0  0
 28 29  1  0  0  0  0
 29 30  1  0  0  0  0
 29 54  2  0  0  0  0
 30 31  1  0  0  0  0
 30 34  1  0  0  0  0
 31 32  1  0  0  0  0
 31 33  1  0  0  0  0
 34 35  1  0  0  0  0
 34 53  1  0  0  0  0
 35 36  1  0  0  0  0
 35 52  2  0  0  0  0
 36 37  1  0  0  0  0
 36 51  1  0  0  0  0
 36 73  1  0  0  0  0
 37 38  1  0  0  0  0
 38 39  1  0  0  0  0
 39 40  1  0  0  0  0
 39 50  1  0  0  0  0
 40 41  1  0  0  0  0
 40 49  2  0  0  0  0
 41 42  1  0  0  0  0
 42 43  1  0  0  0  0
 43 44  1  0  0  0  0
 43 47  1  0  0  0  0
 43 48  1  0  0  0  0
 44 45  1  0  0  0  0
 44 46  1  0  0  0  0
 50 51  1  0  0  0  0
 55 56  1  0  0  0  0
 56 57  1  0  0  0  0
 56 61  1  0  0  0  0
 57 58  1  0  0  0  0
 58 59  1  0  0  0  0
 58 71  1  0  0  0  0
 59 60  1  0  0  0  0
 60 61  1  0  0  0  0
 63 64  1  0  0  0  0
 64 65  1  0  0  0  0
 67 68  4  0  0  0  0
 67 72  4  0  0  0  0
 68 69  4  0  0  0  0
 69 70  4  0  0  0  0
 70 71  4  0  0  0  0
 71 72  4  0  0  0  0
M  END
$$$$
