mol_ETKDG4_102
  PyMOL3.1          3D                             0

 73 79  0  0  0  0  0  0  0  0999 V2000
    0.2116   16.7145  -11.4157 C   0  0  0  0  0  0  0  0  0  0  0  0
    0.0200   15.2549  -11.0840 C   0  0  0  0  0  0  0  0  0  0  0  0
   -0.5565   14.5525  -12.1475 O   0  0  0  0  0  0  0  0  0  0  0  0
   -1.9737   14.5406  -12.2316 C   0  0  0  0  0  0  0  0  0  0  0  0
    1.2868   14.5700  -10.7313 C   0  0  0  0  0  0  0  0  0  0  0  0
    2.4403   15.1494  -11.0288 N   0  0  0  0  0  0  0  0  0  0  0  0
    3.6049   14.5389  -10.7303 C   0  0  0  0  0  0  0  0  0  0  0  0
    3.6311   13.3125  -10.0923 C   0  0  0  0  0  0  0  0  0  0  0  0
    2.4473   12.7177   -9.7875 C   0  0  0  0  0  0  0  0  0  0  0  0
    1.2782   13.3298  -10.1252 C   0  0  0  0  0  0  0  0  0  0  0  0
    0.0318   12.6998   -9.7852 C   0  0  0  0  0  0  0  0  0  0  0  0
   -0.5741   11.7129  -10.5061 N   0  0  0  0  0  0  0  0  0  0  0  0
   -0.0698   11.0421  -11.7065 C   0  0  0  0  0  0  0  0  0  0  0  0
    0.5027    9.6689  -11.3151 C   0  0  0  0  0  0  0  0  0  0  0  0
   -0.7795   13.0400   -8.7123 C   0  0  0  0  0  0  0  0  0  0  0  0
   -0.5807   14.0452   -7.6356 C   0  0  0  0  0  0  0  0  0  0  0  0
    0.1009   13.5058   -6.3483 C   0  0  0  0  0  0  0  0  0  0  0  0
   -0.5497   14.1626   -5.1357 C   0  0  0  0  0  0  0  0  0  0  0  0
    1.5966   13.8685   -6.3652 C   0  0  0  0  0  0  0  0  0  0  0  0
    0.0590   12.0609   -6.2012 C   0  0  0  0  0  0  0  0  0  0  0  0
   -0.6500   11.4865   -5.0825 O   0  0  0  0  0  0  0  0  0  0  0  0
   -0.9311   10.1109   -4.9890 C   0  0  0  0  0  0  0  0  0  0  0  0
   -1.6498    9.7479   -3.7378 C   0  0  0  0  0  0  0  0  0  0  0  0
   -2.3665    8.5068   -3.9691 N   0  0  0  0  0  0  0  0  0  0  0  0
   -3.0453    8.0467   -2.8632 N   0  0  0  0  0  0  0  0  0  0  0  0
   -4.4066    7.9708   -2.8577 C   0  0  0  0  0  0  0  0  0  0  0  0
   -5.1179    8.3090   -4.1328 C   0  0  0  0  0  0  0  0  0  0  0  0
   -6.2990    7.5127   -4.3392 N   0  0  0  0  0  0  0  0  0  0  0  0
   -6.3871    6.5458   -5.2612 C   0  0  0  0  0  0  0  0  0  0  0  0
   -7.7558    5.9713   -5.3976 C   0  0  0  0  0  0  0  0  0  0  0  0
   -7.8412    4.4565   -5.0404 C   0  0  0  0  0  0  0  0  0  0  0  0
   -9.2565    3.9477   -5.2817 C   0  0  0  0  0  0  0  0  0  0  0  0
   -7.4696    4.2481   -3.5687 C   0  0  0  0  0  0  0  0  0  0  0  0
   -8.2315    6.2243   -6.7342 N   0  0  0  0  0  0  0  0  0  0  0  0
   -9.1439    7.2128   -6.8987 C   0  0  0  0  0  0  0  0  0  0  0  0
   -9.8542    7.3526   -8.2177 C   0  0  0  0  0  0  0  0  0  0  0  0
  -10.8900    8.4714   -8.1780 C   0  0  0  0  0  0  0  0  0  0  0  0
  -11.6705    8.4680   -9.4355 C   0  0  0  0  0  0  0  0  0  0  0  0
  -12.2239    7.1218   -9.6459 N   0  0  0  0  0  0  0  0  0  0  0  0
  -13.5302    6.8184   -9.6424 C   0  0  0  0  0  0  0  0  0  0  0  0
  -14.4304    7.7709   -9.1697 C   0  0  0  0  0  0  0  0  0  0  0  0
  -15.2419    8.4563   -8.7797 C   0  0  0  0  0  0  0  0  0  0  0  0
  -16.1924    9.3500   -8.1852 C   0  0  0  0  0  0  0  0  0  0  0  0
  -15.6648    9.8677   -6.9097 N   0  0  0  0  0  0  0  0  0  0  0  0
  -15.0858    8.8274   -6.0405 C   0  0  0  0  0  0  0  0  0  0  0  0
  -14.7820   11.0226   -7.0258 C   0  0  0  0  0  0  0  0  0  0  0  0
  -17.4901    8.5891   -7.9076 C   0  0  0  0  0  0  0  0  0  0  0  0
  -16.4410   10.4964   -9.1672 C   0  0  0  0  0  0  0  0  0  0  0  0
  -13.9250    5.7112   -9.9922 O   0  0  0  0  0  0  0  0  0  0  0  0
  -11.2862    6.0443   -9.7404 C   0  0  0  0  0  0  0  0  0  0  0  0
  -10.5856    6.0346   -8.4304 C   0  0  0  0  0  0  0  0  0  0  0  0
   -9.4309    7.9695   -5.9647 O   0  0  0  0  0  0  0  0  0  0  0  0
   -7.6589    5.3904   -7.8334 C   0  0  0  0  0  0  0  0  0  0  0  0
   -5.4336    6.2112   -5.9539 O   0  0  0  0  0  0  0  0  0  0  0  0
   -5.5553    9.7992   -4.0380 C   0  0  0  0  0  0  0  0  0  0  0  0
   -5.9924   10.3092   -5.3866 C   0  0  0  0  0  0  0  0  0  0  0  0
   -4.7516   10.5993   -6.1875 C   0  0  0  0  0  0  0  0  0  0  0  0
   -5.1213   11.1970   -7.4818 N   0  0  0  0  0  0  0  0  0  0  0  0
   -5.9867   12.4395   -7.2523 C   0  0  0  0  0  0  0  0  0  0  0  0
   -7.2029   12.0617   -6.4713 C   0  0  0  0  0  0  0  0  0  0  0  0
   -6.7902   11.4802   -5.2128 O   0  0  0  0  0  0  0  0  0  0  0  0
   -5.0427    7.7099   -1.8577 O   0  0  0  0  0  0  0  0  0  0  0  0
   -2.2085    7.7706   -1.6997 C   0  0  0  0  0  0  0  0  0  0  0  0
   -1.4197    9.0619   -1.3561 C   0  0  0  0  0  0  0  0  0  0  0  0
   -0.6781    9.5651   -2.5735 C   0  0  0  0  0  0  0  0  0  0  0  0
   -0.6666    9.1921   -5.8057 O   0  0  0  0  0  0  0  0  0  0  0  0
   -1.8724   12.2221   -8.8109 C   0  0  0  0  0  0  0  0  0  0  0  0
   -1.7228   11.3975   -9.9189 C   0  0  0  0  0  0  0  0  0  0  0  0
   -2.7399   10.4536  -10.2170 C   0  0  0  0  0  0  0  0  0  0  0  0
   -3.8462   10.3904   -9.3862 C   0  0  0  0  0  0  0  0  0  0  0  0
   -3.9841   11.2679   -8.2911 C   0  0  0  0  0  0  0  0  0  0  0  0
   -2.9554   12.1710   -8.0128 C   0  0  0  0  0  0  0  0  0  0  0  0
   -8.9339    7.6136   -9.2306 F   0  0  0  0  0  0  0  0  0  0  0  0
  1  2  1  0  0  0  0
  2  3  1  0  0  0  0
  2  5  1  0  0  0  0
  3  4  1  0  0  0  0
  5  6  4  0  0  0  0
  5 10  4  0  0  0  0
  6  7  4  0  0  0  0
  7  8  4  0  0  0  0
  8  9  4  0  0  0  0
  9 10  4  0  0  0  0
 10 11  1  0  0  0  0
 11 12  4  0  0  0  0
 11 15  4  0  0  0  0
 12 13  1  0  0  0  0
 12 68  4  0  0  0  0
 13 14  1  0  0  0  0
 15 16  1  0  0  0  0
 15 67  4  0  0  0  0
 16 17  1  0  0  0  0
 17 18  1  0  0  0  0
 17 19  1  0  0  0  0
 17 20  1  0  0  0  0
 20 21  1  0  0  0  0
 21 22  1  0  0  0  0
 22 23  1  0  0  0  0
 22 66  2  0  0  0  0
 23 24  1  0  0  0  0
 23 65  1  0  0  0  0
 24 25  1  0  0  0  0
 25 26  1  0  0  0  0
 25 63  1  0  0  0  0
 26 27  1  0  0  0  0
 26 62  2  0  0  0  0
 27 28  1  0  0  0  0
 27 55  1  0  0  0  0
 28 29  1  0  0  0  0
 29 30  1  0  0  0  0
 29 54  2  0  0  0  0
 30 31  1  0  0  0  0
 30 34  1  0  0  0  0
 31 32  1  0  0  0  0
 31 33  1  0  0  0  0
 34 35  1  0  0  0  0
 34 53  1  0  0  0  0
 35 36  1  0  0  0  0
 35 52  2  0  0  0  0
 36 37  1  0  0  0  0
 36 51  1  0  0  0  0
 36 73  1  0  0  0  0
 37 38  1  0  0  0  0
 38 39  1  0  0  0  0
 39 40  1  0  0  0  0
 39 50  1  0  0  0  0
 40 41  1  0  0  0  0
 40 49  2  0  0  0  0
 41 42  1  0  0  0  0
 42 43  1  0  0  0  0
 43 44  1  0  0  0  0
 43 47  1  0  0  0  0
 43 48  1  0  0  0  0
 44 45  1  0  0  0  0
 44 46  1  0  0  0  0
 50 51  1  0  0  0  0
 55 56  1  0  0  0  0
 56 57  1  0  0  0  0
 56 61  1  0  0  0  0
 57 58  1  0  0  0  0
 58 59  1  0  0  0  0
 58 71  1  0  0  0  0
 59 60  1  0  0  0  0
 60 61  1  0  0  0  0
 63 64  1  0  0  0  0
 64 65  1  0  0  0  0
 67 68  4  0  0  0  0
 67 72  4  0  0  0  0
 68 69  4  0  0  0  0
 69 70  4  0  0  0  0
 70 71  4  0  0  0  0
 71 72  4  0  0  0  0
M  END
$$$$
