mol_ETKDG1_44
  PyMOL3.1          3D                             0

 73 79  0  0  0  0  0  0  0  0999 V2000
    0.1156   14.9901  -13.4208 C   0  0  0  0  0  0  0  0  0  0  0  0
   -0.0133   14.6843  -11.9388 C   0  0  0  0  0  0  0  0  0  0  0  0
   -0.3905   15.7912  -11.1811 O   0  0  0  0  0  0  0  0  0  0  0  0
   -1.7843   16.0727  -11.0550 C   0  0  0  0  0  0  0  0  0  0  0  0
    1.2527   14.1751  -11.3729 C   0  0  0  0  0  0  0  0  0  0  0  0
    2.3793   14.7747  -11.7149 N   0  0  0  0  0  0  0  0  0  0  0  0
    3.5563   14.3411  -11.2459 C   0  0  0  0  0  0  0  0  0  0  0  0
    3.6259   13.2324  -10.3997 C   0  0  0  0  0  0  0  0  0  0  0  0
    2.4678   12.6095  -10.0516 C   0  0  0  0  0  0  0  0  0  0  0  0
    1.2774   13.0822  -10.5300 C   0  0  0  0  0  0  0  0  0  0  0  0
    0.0478   12.4512  -10.1268 C   0  0  0  0  0  0  0  0  0  0  0  0
   -0.5489   11.4284  -10.7998 N   0  0  0  0  0  0  0  0  0  0  0  0
   -0.0508   10.7472  -11.9976 C   0  0  0  0  0  0  0  0  0  0  0  0
    0.5440    9.3894  -11.6152 C   0  0  0  0  0  0  0  0  0  0  0  0
   -0.7568   12.8217   -9.0453 C   0  0  0  0  0  0  0  0  0  0  0  0
   -0.5698   13.8683   -8.0028 C   0  0  0  0  0  0  0  0  0  0  0  0
    0.1132   13.3962   -6.6888 C   0  0  0  0  0  0  0  0  0  0  0  0
   -0.5374   14.1246   -5.5057 C   0  0  0  0  0  0  0  0  0  0  0  0
    1.6205   13.7308   -6.6929 C   0  0  0  0  0  0  0  0  0  0  0  0
    0.0598   11.9527   -6.4473 C   0  0  0  0  0  0  0  0  0  0  0  0
   -0.6326   11.4282   -5.2662 O   0  0  0  0  0  0  0  0  0  0  0  0
   -0.9339   10.0592   -5.1136 C   0  0  0  0  0  0  0  0  0  0  0  0
   -1.6581    9.7430   -3.8380 C   0  0  0  0  0  0  0  0  0  0  0  0
   -2.3547    8.4742   -4.0123 N   0  0  0  0  0  0  0  0  0  0  0  0
   -3.0368    8.0465   -2.8962 N   0  0  0  0  0  0  0  0  0  0  0  0
   -4.3935    7.9347   -2.9012 C   0  0  0  0  0  0  0  0  0  0  0  0
   -5.0949    8.2159   -4.2053 C   0  0  0  0  0  0  0  0  0  0  0  0
   -6.2773    7.4128   -4.3910 N   0  0  0  0  0  0  0  0  0  0  0  0
   -6.3852    6.4587   -5.3183 C   0  0  0  0  0  0  0  0  0  0  0  0
   -7.7605    5.8886   -5.4288 C   0  0  0  0  0  0  0  0  0  0  0  0
   -7.8432    4.3728   -5.0804 C   0  0  0  0  0  0  0  0  0  0  0  0
   -9.2563    3.8603   -5.3034 C   0  0  0  0  0  0  0  0  0  0  0  0
   -7.4471    4.1601   -3.6088 C   0  0  0  0  0  0  0  0  0  0  0  0
   -8.2847    6.1831   -6.7399 N   0  0  0  0  0  0  0  0  0  0  0  0
   -9.1320    7.2377   -6.8398 C   0  0  0  0  0  0  0  0  0  0  0  0
   -9.9662    7.4134   -8.0843 C   0  0  0  0  0  0  0  0  0  0  0  0
  -10.7488    6.1336   -8.2520 C   0  0  0  0  0  0  0  0  0  0  0  0
  -11.6496    6.2449   -9.4230 C   0  0  0  0  0  0  0  0  0  0  0  0
  -12.5791    7.2694   -9.0671 N   0  0  0  0  0  0  0  0  0  0  0  0
  -13.8402    6.8697   -8.7651 C   0  0  0  0  0  0  0  0  0  0  0  0
  -14.6649    7.6797   -7.9680 C   0  0  0  0  0  0  0  0  0  0  0  0
  -15.4457    8.2523   -7.3495 C   0  0  0  0  0  0  0  0  0  0  0  0
  -16.3426    8.9831   -6.4945 C   0  0  0  0  0  0  0  0  0  0  0  0
  -15.6309   10.0723   -5.8159 N   0  0  0  0  0  0  0  0  0  0  0  0
  -14.6438    9.6226   -4.8304 C   0  0  0  0  0  0  0  0  0  0  0  0
  -15.0618   11.0812   -6.7207 C   0  0  0  0  0  0  0  0  0  0  0  0
  -16.9245    8.0303   -5.4418 C   0  0  0  0  0  0  0  0  0  0  0  0
  -17.4573    9.5715   -7.3647 C   0  0  0  0  0  0  0  0  0  0  0  0
  -14.2632    5.7867   -9.1481 O   0  0  0  0  0  0  0  0  0  0  0  0
  -12.0131    8.6150   -8.9094 C   0  0  0  0  0  0  0  0  0  0  0  0
  -10.9749    8.5707   -7.8519 C   0  0  0  0  0  0  0  0  0  0  0  0
   -9.2786    8.0264   -5.8886 O   0  0  0  0  0  0  0  0  0  0  0  0
   -7.8349    5.3287   -7.8720 C   0  0  0  0  0  0  0  0  0  0  0  0
   -5.4582    6.1140   -6.0460 O   0  0  0  0  0  0  0  0  0  0  0  0
   -5.5298    9.7132   -4.1904 C   0  0  0  0  0  0  0  0  0  0  0  0
   -5.9579   10.1615   -5.5784 C   0  0  0  0  0  0  0  0  0  0  0  0
   -4.7117   10.4028   -6.3949 C   0  0  0  0  0  0  0  0  0  0  0  0
   -5.0762   10.9481   -7.7146 N   0  0  0  0  0  0  0  0  0  0  0  0
   -5.9604   12.1834   -7.5557 C   0  0  0  0  0  0  0  0  0  0  0  0
   -7.1762   11.8365   -6.7506 C   0  0  0  0  0  0  0  0  0  0  0  0
   -6.7553   11.3297   -5.4691 O   0  0  0  0  0  0  0  0  0  0  0  0
   -5.0398    7.6953   -1.9157 O   0  0  0  0  0  0  0  0  0  0  0  0
   -2.2138    7.8369   -1.7174 C   0  0  0  0  0  0  0  0  0  0  0  0
   -1.4513    9.1582   -1.4156 C   0  0  0  0  0  0  0  0  0  0  0  0
   -0.7029    9.6311   -2.6501 C   0  0  0  0  0  0  0  0  0  0  0  0
   -0.6843    9.1126   -5.9060 O   0  0  0  0  0  0  0  0  0  0  0  0
   -1.8402   11.9772   -9.1034 C   0  0  0  0  0  0  0  0  0  0  0  0
   -1.6842   11.1170  -10.1826 C   0  0  0  0  0  0  0  0  0  0  0  0
   -2.6879   10.1462  -10.4369 C   0  0  0  0  0  0  0  0  0  0  0  0
   -3.7914   10.0952   -9.5948 C   0  0  0  0  0  0  0  0  0  0  0  0
   -3.9407   11.0110   -8.5259 C   0  0  0  0  0  0  0  0  0  0  0  0
   -2.9232   11.9355   -8.2892 C   0  0  0  0  0  0  0  0  0  0  0  0
   -9.1505    7.7269   -9.1645 F   0  0  0  0  0  0  0  0  0  0  0  0
  1  2  1  0  0  0  0
  2  3  1  0  0  0  0
  2  5  1  0  0  0  0
  3  4  1  0  0  0  0
  5  6  4  0  0  0  0
  5 10  4  0  0  0  0
  6  7  4  0  0  0  0
  7  8  4  0  0  0  0
  8  9  4  0  0  0  0
  9 10  4  0  0  0  0
 10 11  1  0  0  0  0
 11 12  4  0  0  0  0
 11 15  4  0  0  0  0
 12 13  1  0  0  0  0
 12 68  4  0  0  0  0
 13 14  1  0  0  0  0
 15 16  1  0  0  0  0
 15 67  4  0  0  0  0
 16 17  1  0  0  0  0
 17 18  1  0  0  0  0
 17 19  1  0  0  0  0
 17 20  1  0  0  0  0
 20 21  1  0  0  0  0
 21 22  1  0  0  0  0
 22 23  1  0  0  0  0
 22 66  2  0  0  0  0
 23 24  1  0  0  0  0
 23 65  1  0  0  0  0
 24 25  1  0  0  0  0
 25 26  1  0  0  0  0
 25 63  1  0  0  0  0
 26 27  1  0  0  0  0
 26 62  2  0  0  0  0
 27 28  1  0  0  0  0
 27 55  1  0  0  0  0
 28 29  1  0  0  0  0
 29 30  1  0  0  0  0
 29 54  2  0  0  0  0
 30 31  1  0  0  0  0
 30 34  1  0  0  0  0
 31 32  1  0  0  0  0
 31 33  1  0  0  0  0
 34 35  1  0  0  0  0
 34 53  1  0  0  0  0
 35 36  1  0  0  0  0
 35 52  2  0  0  0  0
 36 37  1  0  0  0  0
 36 51  1  0  0  0  0
 36 73  1  0  0  0  0
 37 38  1  0  0  0  0
 38 39  1  0  0  0  0
 39 40  1  0  0  0  0
 39 50  1  0  0  0  0
 40 41  1  0  0  0  0
 40 49  2  0  0  0  0
 41 42  1  0  0  0  0
 42 43  1  0  0  0  0
 43 44  1  0  0  0  0
 43 47  1  0  0  0  0
 43 48  1  0  0  0  0
 44 45  1  0  0  0  0
 44 46  1  0  0  0  0
 50 51  1  0  0  0  0
 55 56  1  0  0  0  0
 56 57  1  0  0  0  0
 56 61  1  0  0  0  0
 57 58  1  0  0  0  0
 58 59  1  0  0  0  0
 58 71  1  0  0  0  0
 59 60  1  0  0  0  0
 60 61  1  0  0  0  0
 63 64  1  0  0  0  0
 64 65  1  0  0  0  0
 67 68  4  0  0  0  0
 67 72  4  0  0  0  0
 68 69  4  0  0  0  0
 69 70  4  0  0  0  0
 70 71  4  0  0  0  0
 71 72  4  0  0  0  0
M  END
$$$$
