mol_ETKDG0_171
  PyMOL3.1          3D                             0

 73 79  0  0  0  0  0  0  0  0999 V2000
   -0.2250   16.4287  -11.6234 C   0  0  0  0  0  0  0  0  0  0  0  0
   -0.2711   14.9304  -11.4508 C   0  0  0  0  0  0  0  0  0  0  0  0
   -0.7023   14.2634  -12.6009 O   0  0  0  0  0  0  0  0  0  0  0  0
   -2.1071   14.0618  -12.7306 C   0  0  0  0  0  0  0  0  0  0  0  0
    1.0496   14.3668  -11.0805 C   0  0  0  0  0  0  0  0  0  0  0  0
    2.1486   15.0116  -11.4357 N   0  0  0  0  0  0  0  0  0  0  0  0
    3.3621   14.5086  -11.1389 C   0  0  0  0  0  0  0  0  0  0  0  0
    3.4937   13.3185  -10.4320 C   0  0  0  0  0  0  0  0  0  0  0  0
    2.3684   12.6589  -10.0618 C   0  0  0  0  0  0  0  0  0  0  0  0
    1.1490   13.1712  -10.4006 C   0  0  0  0  0  0  0  0  0  0  0  0
   -0.0424   12.4787  -10.0073 C   0  0  0  0  0  0  0  0  0  0  0  0
   -0.5989   11.4442  -10.6993 N   0  0  0  0  0  0  0  0  0  0  0  0
   -0.0664   10.7685  -11.8877 C   0  0  0  0  0  0  0  0  0  0  0  0
    0.6188    9.4617  -11.4749 C   0  0  0  0  0  0  0  0  0  0  0  0
   -0.8549   12.8109   -8.9343 C   0  0  0  0  0  0  0  0  0  0  0  0
   -0.6879   13.8518   -7.8715 C   0  0  0  0  0  0  0  0  0  0  0  0
    0.0124   13.3754   -6.5757 C   0  0  0  0  0  0  0  0  0  0  0  0
   -0.6406   14.0834   -5.3897 C   0  0  0  0  0  0  0  0  0  0  0  0
    1.5061   13.7440   -6.6067 C   0  0  0  0  0  0  0  0  0  0  0  0
   -0.0123   11.9508   -6.3590 C   0  0  0  0  0  0  0  0  0  0  0  0
   -0.7038   11.4193   -5.1942 O   0  0  0  0  0  0  0  0  0  0  0  0
   -0.9787   10.0473   -5.0383 C   0  0  0  0  0  0  0  0  0  0  0  0
   -1.7142    9.7318   -3.7846 C   0  0  0  0  0  0  0  0  0  0  0  0
   -2.3983    8.4600   -3.9694 N   0  0  0  0  0  0  0  0  0  0  0  0
   -3.0825    8.0356   -2.8600 N   0  0  0  0  0  0  0  0  0  0  0  0
   -4.4407    7.9313   -2.8705 C   0  0  0  0  0  0  0  0  0  0  0  0
   -5.1354    8.2071   -4.1720 C   0  0  0  0  0  0  0  0  0  0  0  0
   -6.3229    7.3996   -4.3591 N   0  0  0  0  0  0  0  0  0  0  0  0
   -6.4026    6.4373   -5.2771 C   0  0  0  0  0  0  0  0  0  0  0  0
   -7.7696    5.8499   -5.4242 C   0  0  0  0  0  0  0  0  0  0  0  0
   -7.8325    4.3436   -5.0279 C   0  0  0  0  0  0  0  0  0  0  0  0
   -9.2167    3.7834   -5.3048 C   0  0  0  0  0  0  0  0  0  0  0  0
   -7.5077    4.1842   -3.5363 C   0  0  0  0  0  0  0  0  0  0  0  0
   -8.2167    6.0477   -6.7814 N   0  0  0  0  0  0  0  0  0  0  0  0
   -9.2064    6.9522   -7.0108 C   0  0  0  0  0  0  0  0  0  0  0  0
   -9.8687    6.9897   -8.3621 C   0  0  0  0  0  0  0  0  0  0  0  0
  -11.1110    7.8740   -8.4019 C   0  0  0  0  0  0  0  0  0  0  0  0
  -11.8139    7.7217   -9.7151 C   0  0  0  0  0  0  0  0  0  0  0  0
  -12.0151    6.2949  -10.0324 N   0  0  0  0  0  0  0  0  0  0  0  0
  -13.1842    5.6728  -10.3014 C   0  0  0  0  0  0  0  0  0  0  0  0
  -14.3696    6.3777  -10.2117 C   0  0  0  0  0  0  0  0  0  0  0  0
  -15.4092    6.8715  -10.1972 C   0  0  0  0  0  0  0  0  0  0  0  0
  -16.6587    7.5726  -10.0802 C   0  0  0  0  0  0  0  0  0  0  0  0
  -16.4666    8.7596   -9.2348 N   0  0  0  0  0  0  0  0  0  0  0  0
  -15.9933    8.4419   -7.8722 C   0  0  0  0  0  0  0  0  0  0  0  0
  -15.6288    9.8052   -9.8601 C   0  0  0  0  0  0  0  0  0  0  0  0
  -17.6924    6.6519   -9.4223 C   0  0  0  0  0  0  0  0  0  0  0  0
  -17.1060    7.9851  -11.4825 C   0  0  0  0  0  0  0  0  0  0  0  0
  -13.2051    4.4828  -10.6043 O   0  0  0  0  0  0  0  0  0  0  0  0
  -10.8754    5.4544  -10.0001 C   0  0  0  0  0  0  0  0  0  0  0  0
  -10.3396    5.5795   -8.6357 C   0  0  0  0  0  0  0  0  0  0  0  0
   -9.5911    7.7106   -6.1113 O   0  0  0  0  0  0  0  0  0  0  0  0
   -7.5358    5.2524   -7.8354 C   0  0  0  0  0  0  0  0  0  0  0  0
   -5.4492    6.0959   -5.9558 O   0  0  0  0  0  0  0  0  0  0  0  0
   -5.5797    9.6979   -4.1696 C   0  0  0  0  0  0  0  0  0  0  0  0
   -6.0053   10.1091   -5.5560 C   0  0  0  0  0  0  0  0  0  0  0  0
   -4.7649   10.3601   -6.3635 C   0  0  0  0  0  0  0  0  0  0  0  0
   -5.1321   10.8570   -7.6953 N   0  0  0  0  0  0  0  0  0  0  0  0
   -6.0486   12.0839   -7.5658 C   0  0  0  0  0  0  0  0  0  0  0  0
   -7.2573   11.7302   -6.7654 C   0  0  0  0  0  0  0  0  0  0  0  0
   -6.8350   11.2680   -5.4721 O   0  0  0  0  0  0  0  0  0  0  0  0
   -5.0875    7.6991   -1.8738 O   0  0  0  0  0  0  0  0  0  0  0  0
   -2.2588    7.8333   -1.6647 C   0  0  0  0  0  0  0  0  0  0  0  0
   -1.5241    9.1410   -1.3637 C   0  0  0  0  0  0  0  0  0  0  0  0
   -0.7648    9.6238   -2.5849 C   0  0  0  0  0  0  0  0  0  0  0  0
   -0.6974    9.0968   -5.8078 O   0  0  0  0  0  0  0  0  0  0  0  0
   -1.9162   11.9428   -9.0211 C   0  0  0  0  0  0  0  0  0  0  0  0
   -1.7292   11.0946  -10.1032 C   0  0  0  0  0  0  0  0  0  0  0  0
   -2.6977   10.1040  -10.3859 C   0  0  0  0  0  0  0  0  0  0  0  0
   -3.8132   10.0286   -9.5519 C   0  0  0  0  0  0  0  0  0  0  0  0
   -3.9866   10.9311   -8.4911 C   0  0  0  0  0  0  0  0  0  0  0  0
   -2.9931   11.8717   -8.2263 C   0  0  0  0  0  0  0  0  0  0  0  0
   -8.9585    7.4317   -9.3125 F   0  0  0  0  0  0  0  0  0  0  0  0
  1  2  1  0  0  0  0
  2  3  1  0  0  0  0
  2  5  1  0  0  0  0
  3  4  1  0  0  0  0
  5  6  4  0  0  0  0
  5 10  4  0  0  0  0
  6  7  4  0  0  0  0
  7  8  4  0  0  0  0
  8  9  4  0  0  0  0
  9 10  4  0  0  0  0
 10 11  1  0  0  0  0
 11 12  4  0  0  0  0
 11 15  4  0  0  0  0
 12 13  1  0  0  0  0
 12 68  4  0  0  0  0
 13 14  1  0  0  0  0
 15 16  1  0  0  0  0
 15 67  4  0  0  0  0
 16 17  1  0  0  0  0
 17 18  1  0  0  0  0
 17 19  1  0  0  0  0
 17 20  1  0  0  0  0
 20 21  1  0  0  0  0
 21 22  1  0  0  0  0
 22 23  1  0  0  0  0
 22 66  2  0  0  0  0
 23 24  1  0  0  0  0
 23 65  1  0  0  0  0
 24 25  1  0  0  0  0
 25 26  1  0  0  0  0
 25 63  1  0  0  0  0
 26 27  1  0  0  0  0
 26 62  2  0  0  0  0
 27 28  1  0  0  0  0
 27 55  1  0  0  0  0
 28 29  1  0  0  0  0
 29 30  1  0  0  0  0
 29 54  2  0  0  0  0
 30 31  1  0  0  0  0
 30 34  1  0  0  0  0
 31 32  1  0  0  0  0
 31 33  1  0  0  0  0
 34 35  1  0  0  0  0
 34 53  1  0  0  0  0
 35 36  1  0  0  0  0
 35 52  2  0  0  0  0
 36 37  1  0  0  0  0
 36 51  1  0  0  0  0
 36 73  1  0  0  0  0
 37 38  1  0  0  0  0
 38 39  1  0  0  0  0
 39 40  1  0  0  0  0
 39 50  1  0  0  0  0
 40 41  1  0  0  0  0
 40 49  2  0  0  0  0
 41 42  1  0  0  0  0
 42 43  1  0  0  0  0
 43 44  1  0  0  0  0
 43 47  1  0  0  0  0
 43 48  1  0  0  0  0
 44 45  1  0  0  0  0
 44 46  1  0  0  0  0
 50 51  1  0  0  0  0
 55 56  1  0  0  0  0
 56 57  1  0  0  0  0
 56 61  1  0  0  0  0
 57 58  1  0  0  0  0
 58 59  1  0  0  0  0
 58 71  1  0  0  0  0
 59 60  1  0  0  0  0
 60 61  1  0  0  0  0
 63 64  1  0  0  0  0
 64 65  1  0  0  0  0
 67 68  4  0  0  0  0
 67 72  4  0  0  0  0
 68 69  4  0  0  0  0
 69 70  4  0  0  0  0
 70 71  4  0  0  0  0
 71 72  4  0  0  0  0
M  END
$$$$
