mol_ETKDG3_100
  PyMOL3.1          3D                             0

 73 79  0  0  0  0  0  0  0  0999 V2000
    0.1287   14.1845  -13.9473 C   0  0  0  0  0  0  0  0  0  0  0  0
   -0.1059   13.9439  -12.4688 C   0  0  0  0  0  0  0  0  0  0  0  0
   -0.7618   14.9845  -11.8343 O   0  0  0  0  0  0  0  0  0  0  0  0
   -2.1830   14.9931  -11.8262 C   0  0  0  0  0  0  0  0  0  0  0  0
    1.1582   13.7156  -11.7311 C   0  0  0  0  0  0  0  0  0  0  0  0
    2.2612   14.3251  -12.1310 N   0  0  0  0  0  0  0  0  0  0  0  0
    3.4199   14.1382  -11.4780 C   0  0  0  0  0  0  0  0  0  0  0  0
    3.4948   13.2787  -10.3845 C   0  0  0  0  0  0  0  0  0  0  0  0
    2.3613   12.6440   -9.9849 C   0  0  0  0  0  0  0  0  0  0  0  0
    1.1954   12.8646  -10.6519 C   0  0  0  0  0  0  0  0  0  0  0  0
   -0.0110   12.2340  -10.2016 C   0  0  0  0  0  0  0  0  0  0  0  0
   -0.5972   11.1723  -10.8212 N   0  0  0  0  0  0  0  0  0  0  0  0
   -0.0970   10.4098  -11.9745 C   0  0  0  0  0  0  0  0  0  0  0  0
    0.5169    9.1015  -11.4870 C   0  0  0  0  0  0  0  0  0  0  0  0
   -0.7973   12.6529   -9.1435 C   0  0  0  0  0  0  0  0  0  0  0  0
   -0.6063   13.7585   -8.1437 C   0  0  0  0  0  0  0  0  0  0  0  0
   -0.0348   13.3382   -6.7478 C   0  0  0  0  0  0  0  0  0  0  0  0
   -0.8543   14.0569   -5.6679 C   0  0  0  0  0  0  0  0  0  0  0  0
    1.4355   13.8085   -6.6394 C   0  0  0  0  0  0  0  0  0  0  0  0
    0.0015   11.9277   -6.4678 C   0  0  0  0  0  0  0  0  0  0  0  0
   -0.6556   11.4160   -5.2570 O   0  0  0  0  0  0  0  0  0  0  0  0
   -0.9468   10.0468   -5.0815 C   0  0  0  0  0  0  0  0  0  0  0  0
   -1.6674    9.7426   -3.8114 C   0  0  0  0  0  0  0  0  0  0  0  0
   -2.3863    8.4863   -3.9962 N   0  0  0  0  0  0  0  0  0  0  0  0
   -3.0683    8.0595   -2.8811 N   0  0  0  0  0  0  0  0  0  0  0  0
   -4.4290    7.9570   -2.8932 C   0  0  0  0  0  0  0  0  0  0  0  0
   -5.1326    8.2522   -4.1943 C   0  0  0  0  0  0  0  0  0  0  0  0
   -6.3282    7.4491   -4.3765 N   0  0  0  0  0  0  0  0  0  0  0  0
   -6.4411    6.4707   -5.2887 C   0  0  0  0  0  0  0  0  0  0  0  0
   -7.8223    5.9083   -5.4062 C   0  0  0  0  0  0  0  0  0  0  0  0
   -7.9004    4.3971   -5.0404 C   0  0  0  0  0  0  0  0  0  0  0  0
   -9.3213    3.8794   -5.2497 C   0  0  0  0  0  0  0  0  0  0  0  0
   -7.4990    4.1936   -3.5745 C   0  0  0  0  0  0  0  0  0  0  0  0
   -8.3238    6.1567   -6.7406 N   0  0  0  0  0  0  0  0  0  0  0  0
   -9.1771    7.2057   -6.9149 C   0  0  0  0  0  0  0  0  0  0  0  0
   -9.9720    7.2914   -8.1934 C   0  0  0  0  0  0  0  0  0  0  0  0
  -10.7483    8.5899   -8.3695 C   0  0  0  0  0  0  0  0  0  0  0  0
  -11.5718    8.4906   -9.6017 C   0  0  0  0  0  0  0  0  0  0  0  0
  -12.4049    7.2716   -9.5491 N   0  0  0  0  0  0  0  0  0  0  0  0
  -13.7493    7.2634   -9.6615 C   0  0  0  0  0  0  0  0  0  0  0  0
  -14.3969    8.4075  -10.0704 C   0  0  0  0  0  0  0  0  0  0  0  0
  -15.0153    9.2714  -10.4630 C   0  0  0  0  0  0  0  0  0  0  0  0
  -15.6276   10.4576  -10.9403 C   0  0  0  0  0  0  0  0  0  0  0  0
  -14.7348   11.5877  -10.6921 N   0  0  0  0  0  0  0  0  0  0  0  0
  -14.2350   11.6984   -9.3255 C   0  0  0  0  0  0  0  0  0  0  0  0
  -15.1195   12.8467  -11.2729 C   0  0  0  0  0  0  0  0  0  0  0  0
  -16.9576   10.6697  -10.2141 C   0  0  0  0  0  0  0  0  0  0  0  0
  -15.8488   10.2948  -12.4510 C   0  0  0  0  0  0  0  0  0  0  0  0
  -14.3907    6.2482   -9.4303 O   0  0  0  0  0  0  0  0  0  0  0  0
  -11.7504    6.0245   -9.3477 C   0  0  0  0  0  0  0  0  0  0  0  0
  -10.9608    6.1371   -8.1080 C   0  0  0  0  0  0  0  0  0  0  0  0
   -9.3782    8.0229   -6.0078 O   0  0  0  0  0  0  0  0  0  0  0  0
   -7.8552    5.2490   -7.8221 C   0  0  0  0  0  0  0  0  0  0  0  0
   -5.5020    6.1113   -5.9856 O   0  0  0  0  0  0  0  0  0  0  0  0
   -5.5498    9.7481   -4.1781 C   0  0  0  0  0  0  0  0  0  0  0  0
   -5.9853   10.1910   -5.5567 C   0  0  0  0  0  0  0  0  0  0  0  0
   -4.7507   10.3561   -6.4020 C   0  0  0  0  0  0  0  0  0  0  0  0
   -5.1131   10.8930   -7.7230 N   0  0  0  0  0  0  0  0  0  0  0  0
   -5.9365   12.1894   -7.5448 C   0  0  0  0  0  0  0  0  0  0  0  0
   -7.1317   11.9273   -6.7270 C   0  0  0  0  0  0  0  0  0  0  0  0
   -6.7174   11.4032   -5.4420 O   0  0  0  0  0  0  0  0  0  0  0  0
   -5.0750    7.7200   -1.8970 O   0  0  0  0  0  0  0  0  0  0  0  0
   -2.2470    7.8341   -1.7021 C   0  0  0  0  0  0  0  0  0  0  0  0
   -1.4634    9.1412   -1.3939 C   0  0  0  0  0  0  0  0  0  0  0  0
   -0.7100    9.6015   -2.6308 C   0  0  0  0  0  0  0  0  0  0  0  0
   -0.6957    9.0884   -5.8569 O   0  0  0  0  0  0  0  0  0  0  0  0
   -1.8761   11.8035   -9.1585 C   0  0  0  0  0  0  0  0  0  0  0  0
   -1.7321   10.8907  -10.1911 C   0  0  0  0  0  0  0  0  0  0  0  0
   -2.7427    9.9098  -10.4023 C   0  0  0  0  0  0  0  0  0  0  0  0
   -3.8369    9.9120   -9.5586 C   0  0  0  0  0  0  0  0  0  0  0  0
   -3.9705   10.8886   -8.5400 C   0  0  0  0  0  0  0  0  0  0  0  0
   -2.9310   11.8036   -8.3520 C   0  0  0  0  0  0  0  0  0  0  0  0
   -9.1309    7.1787   -9.2901 F   0  0  0  0  0  0  0  0  0  0  0  0
  1  2  1  0  0  0  0
  2  3  1  0  0  0  0
  2  5  1  0  0  0  0
  3  4  1  0  0  0  0
  5  6  4  0  0  0  0
  5 10  4  0  0  0  0
  6  7  4  0  0  0  0
  7  8  4  0  0  0  0
  8  9  4  0  0  0  0
  9 10  4  0  0  0  0
 10 11  1  0  0  0  0
 11 12  4  0  0  0  0
 11 15  4  0  0  0  0
 12 13  1  0  0  0  0
 12 68  4  0  0  0  0
 13 14  1  0  0  0  0
 15 16  1  0  0  0  0
 15 67  4  0  0  0  0
 16 17  1  0  0  0  0
 17 18  1  0  0  0  0
 17 19  1  0  0  0  0
 17 20  1  0  0  0  0
 20 21  1  0  0  0  0
 21 22  1  0  0  0  0
 22 23  1  0  0  0  0
 22 66  2  0  0  0  0
 23 24  1  0  0  0  0
 23 65  1  0  0  0  0
 24 25  1  0  0  0  0
 25 26  1  0  0  0  0
 25 63  1  0  0  0  0
 26 27  1  0  0  0  0
 26 62  2  0  0  0  0
 27 28  1  0  0  0  0
 27 55  1  0  0  0  0
 28 29  1  0  0  0  0
 29 30  1  0  0  0  0
 29 54  2  0  0  0  0
 30 31  1  0  0  0  0
 30 34  1  0  0  0  0
 31 32  1  0  0  0  0
 31 33  1  0  0  0  0
 34 35  1  0  0  0  0
 34 53  1  0  0  0  0
 35 36  1  0  0  0  0
 35 52  2  0  0  0  0
 36 37  1  0  0  0  0
 36 51  1  0  0  0  0
 36 73  1  0  0  0  0
 37 38  1  0  0  0  0
 38 39  1  0  0  0  0
 39 40  1  0  0  0  0
 39 50  1  0  0  0  0
 40 41  1  0  0  0  0
 40 49  2  0  0  0  0
 41 42  1  0  0  0  0
 42 43  1  0  0  0  0
 43 44  1  0  0  0  0
 43 47  1  0  0  0  0
 43 48  1  0  0  0  0
 44 45  1  0  0  0  0
 44 46  1  0  0  0  0
 50 51  1  0  0  0  0
 55 56  1  0  0  0  0
 56 57  1  0  0  0  0
 56 61  1  0  0  0  0
 57 58  1  0  0  0  0
 58 59  1  0  0  0  0
 58 71  1  0  0  0  0
 59 60  1  0  0  0  0
 60 61  1  0  0  0  0
 63 64  1  0  0  0  0
 64 65  1  0  0  0  0
 67 68  4  0  0  0  0
 67 72  4  0  0  0  0
 68 69  4  0  0  0  0
 69 70  4  0  0  0  0
 70 71  4  0  0  0  0
 71 72  4  0  0  0  0
M  END
$$$$
