mol_ETKDG3_97
  PyMOL3.1          3D                             0

 73 79  0  0  0  0  0  0  0  0999 V2000
   -0.0549   14.5737  -13.3913 C   0  0  0  0  0  0  0  0  0  0  0  0
    0.0094   14.6184  -11.8680 C   0  0  0  0  0  0  0  0  0  0  0  0
   -0.1157   15.9057  -11.3237 O   0  0  0  0  0  0  0  0  0  0  0  0
   -1.4031   16.3237  -10.8836 C   0  0  0  0  0  0  0  0  0  0  0  0
    1.2738   14.0466  -11.3657 C   0  0  0  0  0  0  0  0  0  0  0  0
    2.4101   14.5950  -11.7599 N   0  0  0  0  0  0  0  0  0  0  0  0
    3.5897   14.1054  -11.3368 C   0  0  0  0  0  0  0  0  0  0  0  0
    3.6427   12.9944  -10.4812 C   0  0  0  0  0  0  0  0  0  0  0  0
    2.4689   12.4222  -10.0863 C   0  0  0  0  0  0  0  0  0  0  0  0
    1.2874   12.9484  -10.5270 C   0  0  0  0  0  0  0  0  0  0  0  0
    0.0521   12.3703  -10.0817 C   0  0  0  0  0  0  0  0  0  0  0  0
   -0.5855   11.3501  -10.7199 N   0  0  0  0  0  0  0  0  0  0  0  0
   -0.1451   10.6112  -11.9102 C   0  0  0  0  0  0  0  0  0  0  0  0
    0.5295    9.3051  -11.4856 C   0  0  0  0  0  0  0  0  0  0  0  0
   -0.7121   12.7997   -9.0067 C   0  0  0  0  0  0  0  0  0  0  0  0
   -0.4740   13.8762   -7.9885 C   0  0  0  0  0  0  0  0  0  0  0  0
    0.2212   13.4066   -6.6702 C   0  0  0  0  0  0  0  0  0  0  0  0
   -0.4070   14.1693   -5.4968 C   0  0  0  0  0  0  0  0  0  0  0  0
    1.7215   13.7662   -6.7402 C   0  0  0  0  0  0  0  0  0  0  0  0
    0.1792   11.9906   -6.4067 C   0  0  0  0  0  0  0  0  0  0  0  0
   -0.5435   11.4844   -5.2309 O   0  0  0  0  0  0  0  0  0  0  0  0
   -0.8499   10.1175   -5.0613 C   0  0  0  0  0  0  0  0  0  0  0  0
   -1.5915    9.8146   -3.7975 C   0  0  0  0  0  0  0  0  0  0  0  0
   -2.3013    8.5485   -3.9841 N   0  0  0  0  0  0  0  0  0  0  0  0
   -2.9904    8.1156   -2.8727 N   0  0  0  0  0  0  0  0  0  0  0  0
   -4.3563    8.0084   -2.8785 C   0  0  0  0  0  0  0  0  0  0  0  0
   -5.0650    8.3433   -4.1653 C   0  0  0  0  0  0  0  0  0  0  0  0
   -6.2487    7.5294   -4.3829 N   0  0  0  0  0  0  0  0  0  0  0  0
   -6.3423    6.5858   -5.3353 C   0  0  0  0  0  0  0  0  0  0  0  0
   -7.7203    6.0154   -5.4837 C   0  0  0  0  0  0  0  0  0  0  0  0
   -7.8141    4.4970   -5.1422 C   0  0  0  0  0  0  0  0  0  0  0  0
   -9.2377    3.9959   -5.3897 C   0  0  0  0  0  0  0  0  0  0  0  0
   -7.4462    4.2759   -3.6662 C   0  0  0  0  0  0  0  0  0  0  0  0
   -8.1944    6.2995   -6.8222 N   0  0  0  0  0  0  0  0  0  0  0  0
   -9.0529    7.3514   -6.9734 C   0  0  0  0  0  0  0  0  0  0  0  0
   -9.7535    7.5533   -8.2951 C   0  0  0  0  0  0  0  0  0  0  0  0
  -10.5611    8.8506   -8.3322 C   0  0  0  0  0  0  0  0  0  0  0  0
  -11.2902    8.9221   -9.6147 C   0  0  0  0  0  0  0  0  0  0  0  0
  -12.1054    7.7089   -9.7740 N   0  0  0  0  0  0  0  0  0  0  0  0
  -13.4542    7.7424   -9.8786 C   0  0  0  0  0  0  0  0  0  0  0  0
  -14.1024    8.9761   -9.7642 C   0  0  0  0  0  0  0  0  0  0  0  0
  -14.7203    9.9298   -9.6911 C   0  0  0  0  0  0  0  0  0  0  0  0
  -15.3730   11.2122   -9.5303 C   0  0  0  0  0  0  0  0  0  0  0  0
  -15.3219   11.6286   -8.1155 N   0  0  0  0  0  0  0  0  0  0  0  0
  -13.9475   11.8933   -7.6243 C   0  0  0  0  0  0  0  0  0  0  0  0
  -16.0727   10.7439   -7.2141 C   0  0  0  0  0  0  0  0  0  0  0  0
  -16.8221   11.0777  -10.0022 C   0  0  0  0  0  0  0  0  0  0  0  0
  -14.6490   12.2606  -10.3957 C   0  0  0  0  0  0  0  0  0  0  0  0
  -14.0943    6.7168  -10.0517 O   0  0  0  0  0  0  0  0  0  0  0  0
  -11.4241    6.4422   -9.7530 C   0  0  0  0  0  0  0  0  0  0  0  0
  -10.7017    6.3667   -8.4515 C   0  0  0  0  0  0  0  0  0  0  0  0
   -9.2963    8.1122   -6.0261 O   0  0  0  0  0  0  0  0  0  0  0  0
   -7.6912    5.4327   -7.9293 C   0  0  0  0  0  0  0  0  0  0  0  0
   -5.3980    6.2703   -6.0405 O   0  0  0  0  0  0  0  0  0  0  0  0
   -5.5045    9.8327   -4.0744 C   0  0  0  0  0  0  0  0  0  0  0  0
   -5.9434   10.3443   -5.4270 C   0  0  0  0  0  0  0  0  0  0  0  0
   -4.7076   10.5485   -6.2636 C   0  0  0  0  0  0  0  0  0  0  0  0
   -5.0697   11.1346   -7.5599 N   0  0  0  0  0  0  0  0  0  0  0  0
   -5.8689   12.4318   -7.3357 C   0  0  0  0  0  0  0  0  0  0  0  0
   -7.0768   12.1440   -6.5232 C   0  0  0  0  0  0  0  0  0  0  0  0
   -6.6665   11.5650   -5.2591 O   0  0  0  0  0  0  0  0  0  0  0  0
   -5.0009    7.7444   -1.8865 O   0  0  0  0  0  0  0  0  0  0  0  0
   -2.1695    7.8934   -1.6913 C   0  0  0  0  0  0  0  0  0  0  0  0
   -1.4038    9.2140   -1.3736 C   0  0  0  0  0  0  0  0  0  0  0  0
   -0.6440    9.6846   -2.6055 C   0  0  0  0  0  0  0  0  0  0  0  0
   -0.5978    9.1603   -5.8373 O   0  0  0  0  0  0  0  0  0  0  0  0
   -1.8228   11.9954   -9.0180 C   0  0  0  0  0  0  0  0  0  0  0  0
   -1.7202   11.0945  -10.0732 C   0  0  0  0  0  0  0  0  0  0  0  0
   -2.7616   10.1450  -10.2855 C   0  0  0  0  0  0  0  0  0  0  0  0
   -3.8449   10.1620   -9.4245 C   0  0  0  0  0  0  0  0  0  0  0  0
   -3.9390   11.1246   -8.3881 C   0  0  0  0  0  0  0  0  0  0  0  0
   -2.8836   12.0145   -8.1928 C   0  0  0  0  0  0  0  0  0  0  0  0
   -8.8206    7.6036   -9.3254 F   0  0  0  0  0  0  0  0  0  0  0  0
  1  2  1  0  0  0  0
  2  3  1  0  0  0  0
  2  5  1  0  0  0  0
  3  4  1  0  0  0  0
  5  6  4  0  0  0  0
  5 10  4  0  0  0  0
  6  7  4  0  0  0  0
  7  8  4  0  0  0  0
  8  9  4  0  0  0  0
  9 10  4  0  0  0  0
 10 11  1  0  0  0  0
 11 12  4  0  0  0  0
 11 15  4  0  0  0  0
 12 13  1  0  0  0  0
 12 68  4  0  0  0  0
 13 14  1  0  0  0  0
 15 16  1  0  0  0  0
 15 67  4  0  0  0  0
 16 17  1  0  0  0  0
 17 18  1  0  0  0  0
 17 19  1  0  0  0  0
 17 20  1  0  0  0  0
 20 21  1  0  0  0  0
 21 22  1  0  0  0  0
 22 23  1  0  0  0  0
 22 66  2  0  0  0  0
 23 24  1  0  0  0  0
 23 65  1  0  0  0  0
 24 25  1  0  0  0  0
 25 26  1  0  0  0  0
 25 63  1  0  0  0  0
 26 27  1  0  0  0  0
 26 62  2  0  0  0  0
 27 28  1  0  0  0  0
 27 55  1  0  0  0  0
 28 29  1  0  0  0  0
 29 30  1  0  0  0  0
 29 54  2  0  0  0  0
 30 31  1  0  0  0  0
 30 34  1  0  0  0  0
 31 32  1  0  0  0  0
 31 33  1  0  0  0  0
 34 35  1  0  0  0  0
 34 53  1  0  0  0  0
 35 36  1  0  0  0  0
 35 52  2  0  0  0  0
 36 37  1  0  0  0  0
 36 51  1  0  0  0  0
 36 73  1  0  0  0  0
 37 38  1  0  0  0  0
 38 39  1  0  0  0  0
 39 40  1  0  0  0  0
 39 50  1  0  0  0  0
 40 41  1  0  0  0  0
 40 49  2  0  0  0  0
 41 42  1  0  0  0  0
 42 43  1  0  0  0  0
 43 44  1  0  0  0  0
 43 47  1  0  0  0  0
 43 48  1  0  0  0  0
 44 45  1  0  0  0  0
 44 46  1  0  0  0  0
 50 51  1  0  0  0  0
 55 56  1  0  0  0  0
 56 57  1  0  0  0  0
 56 61  1  0  0  0  0
 57 58  1  0  0  0  0
 58 59  1  0  0  0  0
 58 71  1  0  0  0  0
 59 60  1  0  0  0  0
 60 61  1  0  0  0  0
 63 64  1  0  0  0  0
 64 65  1  0  0  0  0
 67 68  4  0  0  0  0
 67 72  4  0  0  0  0
 68 69  4  0  0  0  0
 69 70  4  0  0  0  0
 70 71  4  0  0  0  0
 71 72  4  0  0  0  0
M  END
$$$$
