mol_ETKDG3_77
  PyMOL3.1          3D                             0

 73 79  0  0  0  0  0  0  0  0999 V2000
   -0.2464   15.0149  -13.1979 C   0  0  0  0  0  0  0  0  0  0  0  0
   -0.2339   14.8220  -11.6883 C   0  0  0  0  0  0  0  0  0  0  0  0
   -0.3631   16.0031  -10.9563 O   0  0  0  0  0  0  0  0  0  0  0  0
   -1.6805   16.4363  -10.6177 C   0  0  0  0  0  0  0  0  0  0  0  0
    1.0140   14.1729  -11.2461 C   0  0  0  0  0  0  0  0  0  0  0  0
    2.1629   14.7105  -11.6160 N   0  0  0  0  0  0  0  0  0  0  0  0
    3.3281   14.1488  -11.2536 C   0  0  0  0  0  0  0  0  0  0  0  0
    3.3533   12.9738  -10.4937 C   0  0  0  0  0  0  0  0  0  0  0  0
    2.1652   12.4209  -10.1201 C   0  0  0  0  0  0  0  0  0  0  0  0
    1.0020   13.0208  -10.4931 C   0  0  0  0  0  0  0  0  0  0  0  0
   -0.2401   12.4453  -10.0673 C   0  0  0  0  0  0  0  0  0  0  0  0
   -0.8949   11.4682  -10.7424 N   0  0  0  0  0  0  0  0  0  0  0  0
   -0.4728   10.7897  -11.9710 C   0  0  0  0  0  0  0  0  0  0  0  0
    0.2473    9.4877  -11.6217 C   0  0  0  0  0  0  0  0  0  0  0  0
   -0.9875   12.8321   -8.9705 C   0  0  0  0  0  0  0  0  0  0  0  0
   -0.7320   13.8667   -7.9230 C   0  0  0  0  0  0  0  0  0  0  0  0
    0.0117   13.3506   -6.6598 C   0  0  0  0  0  0  0  0  0  0  0  0
   -0.5490   14.0863   -5.4397 C   0  0  0  0  0  0  0  0  0  0  0  0
    1.5141   13.6857   -6.7878 C   0  0  0  0  0  0  0  0  0  0  0  0
   -0.0511   11.9381   -6.4479 C   0  0  0  0  0  0  0  0  0  0  0  0
   -0.7083   11.4170   -5.2549 O   0  0  0  0  0  0  0  0  0  0  0  0
   -0.9950   10.0497   -5.0887 C   0  0  0  0  0  0  0  0  0  0  0  0
   -1.7063    9.7425   -3.8202 C   0  0  0  0  0  0  0  0  0  0  0  0
   -2.4179    8.4863   -4.0045 N   0  0  0  0  0  0  0  0  0  0  0  0
   -3.0835    8.0503   -2.8859 N   0  0  0  0  0  0  0  0  0  0  0  0
   -4.4419    7.9623   -2.8661 C   0  0  0  0  0  0  0  0  0  0  0  0
   -5.1643    8.3117   -4.1360 C   0  0  0  0  0  0  0  0  0  0  0  0
   -6.3337    7.4869   -4.3418 N   0  0  0  0  0  0  0  0  0  0  0  0
   -6.3862    6.5085   -5.2377 C   0  0  0  0  0  0  0  0  0  0  0  0
   -7.7403    5.9267   -5.4167 C   0  0  0  0  0  0  0  0  0  0  0  0
   -7.8377    4.4152   -5.0647 C   0  0  0  0  0  0  0  0  0  0  0  0
   -9.2417    3.9031   -5.3670 C   0  0  0  0  0  0  0  0  0  0  0  0
   -7.5284    4.2101   -3.5750 C   0  0  0  0  0  0  0  0  0  0  0  0
   -8.1387    6.1824   -6.7713 N   0  0  0  0  0  0  0  0  0  0  0  0
   -9.0790    7.1406   -6.9773 C   0  0  0  0  0  0  0  0  0  0  0  0
   -9.6642    7.2893   -8.3515 C   0  0  0  0  0  0  0  0  0  0  0  0
  -10.8985    8.1799   -8.4035 C   0  0  0  0  0  0  0  0  0  0  0  0
  -11.4619    8.1375   -9.7751 C   0  0  0  0  0  0  0  0  0  0  0  0
  -11.6458    6.7317  -10.1909 N   0  0  0  0  0  0  0  0  0  0  0  0
  -12.8156    6.1657  -10.5038 C   0  0  0  0  0  0  0  0  0  0  0  0
  -13.9437    6.8803  -10.2451 C   0  0  0  0  0  0  0  0  0  0  0  0
  -14.9047    7.4219  -10.0646 C   0  0  0  0  0  0  0  0  0  0  0  0
  -16.0587    8.2009   -9.7226 C   0  0  0  0  0  0  0  0  0  0  0  0
  -15.7007    9.1654   -8.6665 N   0  0  0  0  0  0  0  0  0  0  0  0
  -15.2095    8.5217   -7.4333 C   0  0  0  0  0  0  0  0  0  0  0  0
  -14.7821   10.2297   -9.1350 C   0  0  0  0  0  0  0  0  0  0  0  0
  -17.1650    7.2655   -9.2342 C   0  0  0  0  0  0  0  0  0  0  0  0
  -16.5138    8.9516  -10.9778 C   0  0  0  0  0  0  0  0  0  0  0  0
  -12.8789    5.0355  -10.9657 O   0  0  0  0  0  0  0  0  0  0  0  0
  -10.5296    5.8902  -10.1601 C   0  0  0  0  0  0  0  0  0  0  0  0
  -10.1133    5.9109   -8.7482 C   0  0  0  0  0  0  0  0  0  0  0  0
   -9.4689    7.8634   -6.0564 O   0  0  0  0  0  0  0  0  0  0  0  0
   -7.4492    5.3934   -7.8331 C   0  0  0  0  0  0  0  0  0  0  0  0
   -5.4087    6.1673   -5.8920 O   0  0  0  0  0  0  0  0  0  0  0  0
   -5.6256    9.7905   -4.0432 C   0  0  0  0  0  0  0  0  0  0  0  0
   -6.1059   10.2779   -5.3912 C   0  0  0  0  0  0  0  0  0  0  0  0
   -4.9012   10.5411   -6.2433 C   0  0  0  0  0  0  0  0  0  0  0  0
   -5.3181   11.1051   -7.5351 N   0  0  0  0  0  0  0  0  0  0  0  0
   -6.1626   12.3561   -7.3150 C   0  0  0  0  0  0  0  0  0  0  0  0
   -7.3534   12.0087   -6.4756 C   0  0  0  0  0  0  0  0  0  0  0  0
   -6.8933   11.4555   -5.2192 O   0  0  0  0  0  0  0  0  0  0  0  0
   -5.0740    7.6965   -1.8692 O   0  0  0  0  0  0  0  0  0  0  0  0
   -2.2423    7.8082   -1.7248 C   0  0  0  0  0  0  0  0  0  0  0  0
   -1.4678    9.1205   -1.4144 C   0  0  0  0  0  0  0  0  0  0  0  0
   -0.7332    9.5962   -2.6543 C   0  0  0  0  0  0  0  0  0  0  0  0
   -0.7463    9.0882   -5.8654 O   0  0  0  0  0  0  0  0  0  0  0  0
   -2.1058   12.0407   -9.0027 C   0  0  0  0  0  0  0  0  0  0  0  0
   -2.0213   11.1918  -10.0973 C   0  0  0  0  0  0  0  0  0  0  0  0
   -3.0718   10.2609  -10.3393 C   0  0  0  0  0  0  0  0  0  0  0  0
   -4.1384   10.2431   -9.4660 C   0  0  0  0  0  0  0  0  0  0  0  0
   -4.2106   11.1454   -8.3831 C   0  0  0  0  0  0  0  0  0  0  0  0
   -3.1626   12.0259   -8.1593 C   0  0  0  0  0  0  0  0  0  0  0  0
   -8.6818    7.7979   -9.1911 F   0  0  0  0  0  0  0  0  0  0  0  0
  1  2  1  0  0  0  0
  2  3  1  0  0  0  0
  2  5  1  0  0  0  0
  3  4  1  0  0  0  0
  5  6  4  0  0  0  0
  5 10  4  0  0  0  0
  6  7  4  0  0  0  0
  7  8  4  0  0  0  0
  8  9  4  0  0  0  0
  9 10  4  0  0  0  0
 10 11  1  0  0  0  0
 11 12  4  0  0  0  0
 11 15  4  0  0  0  0
 12 13  1  0  0  0  0
 12 68  4  0  0  0  0
 13 14  1  0  0  0  0
 15 16  1  0  0  0  0
 15 67  4  0  0  0  0
 16 17  1  0  0  0  0
 17 18  1  0  0  0  0
 17 19  1  0  0  0  0
 17 20  1  0  0  0  0
 20 21  1  0  0  0  0
 21 22  1  0  0  0  0
 22 23  1  0  0  0  0
 22 66  2  0  0  0  0
 23 24  1  0  0  0  0
 23 65  1  0  0  0  0
 24 25  1  0  0  0  0
 25 26  1  0  0  0  0
 25 63  1  0  0  0  0
 26 27  1  0  0  0  0
 26 62  2  0  0  0  0
 27 28  1  0  0  0  0
 27 55  1  0  0  0  0
 28 29  1  0  0  0  0
 29 30  1  0  0  0  0
 29 54  2  0  0  0  0
 30 31  1  0  0  0  0
 30 34  1  0  0  0  0
 31 32  1  0  0  0  0
 31 33  1  0  0  0  0
 34 35  1  0  0  0  0
 34 53  1  0  0  0  0
 35 36  1  0  0  0  0
 35 52  2  0  0  0  0
 36 37  1  0  0  0  0
 36 51  1  0  0  0  0
 36 73  1  0  0  0  0
 37 38  1  0  0  0  0
 38 39  1  0  0  0  0
 39 40  1  0  0  0  0
 39 50  1  0  0  0  0
 40 41  1  0  0  0  0
 40 49  2  0  0  0  0
 41 42  1  0  0  0  0
 42 43  1  0  0  0  0
 43 44  1  0  0  0  0
 43 47  1  0  0  0  0
 43 48  1  0  0  0  0
 44 45  1  0  0  0  0
 44 46  1  0  0  0  0
 50 51  1  0  0  0  0
 55 56  1  0  0  0  0
 56 57  1  0  0  0  0
 56 61  1  0  0  0  0
 57 58  1  0  0  0  0
 58 59  1  0  0  0  0
 58 71  1  0  0  0  0
 59 60  1  0  0  0  0
 60 61  1  0  0  0  0
 63 64  1  0  0  0  0
 64 65  1  0  0  0  0
 67 68  4  0  0  0  0
 67 72  4  0  0  0  0
 68 69  4  0  0  0  0
 69 70  4  0  0  0  0
 70 71  4  0  0  0  0
 71 72  4  0  0  0  0
M  END
$$$$
