mol_ETKDG0_156
  PyMOL3.1          3D                             0

 73 79  0  0  0  0  0  0  0  0999 V2000
    0.1558   16.1211  -12.6702 C   0  0  0  0  0  0  0  0  0  0  0  0
   -0.1689   15.1523  -11.5456 C   0  0  0  0  0  0  0  0  0  0  0  0
   -1.1291   14.2984  -12.0142 O   0  0  0  0  0  0  0  0  0  0  0  0
   -2.4788   14.7829  -11.9136 C   0  0  0  0  0  0  0  0  0  0  0  0
    1.0551   14.4327  -11.0724 C   0  0  0  0  0  0  0  0  0  0  0  0
    2.2248   14.9808  -11.3644 N   0  0  0  0  0  0  0  0  0  0  0  0
    3.3720   14.4036  -10.9913 C   0  0  0  0  0  0  0  0  0  0  0  0
    3.3822   13.2253  -10.2669 C   0  0  0  0  0  0  0  0  0  0  0  0
    2.2007   12.6505   -9.9572 C   0  0  0  0  0  0  0  0  0  0  0  0
    1.0358   13.2256  -10.3700 C   0  0  0  0  0  0  0  0  0  0  0  0
   -0.2038   12.6059   -9.9948 C   0  0  0  0  0  0  0  0  0  0  0  0
   -0.8044   11.5717  -10.6577 N   0  0  0  0  0  0  0  0  0  0  0  0
   -0.3056   10.8484  -11.8323 C   0  0  0  0  0  0  0  0  0  0  0  0
    0.3130    9.5147  -11.3911 C   0  0  0  0  0  0  0  0  0  0  0  0
   -1.0097   12.9886   -8.9297 C   0  0  0  0  0  0  0  0  0  0  0  0
   -0.7959   14.0536   -7.9025 C   0  0  0  0  0  0  0  0  0  0  0  0
   -0.2327   13.5653   -6.5330 C   0  0  0  0  0  0  0  0  0  0  0  0
   -1.0770   14.1857   -5.4274 C   0  0  0  0  0  0  0  0  0  0  0  0
    1.2311   14.0284   -6.3650 C   0  0  0  0  0  0  0  0  0  0  0  0
   -0.1869   12.1225   -6.3535 C   0  0  0  0  0  0  0  0  0  0  0  0
   -0.8058   11.5372   -5.1807 O   0  0  0  0  0  0  0  0  0  0  0  0
   -1.0469   10.1547   -5.0503 C   0  0  0  0  0  0  0  0  0  0  0  0
   -1.7357    9.7962   -3.7771 C   0  0  0  0  0  0  0  0  0  0  0  0
   -2.4447    8.5392   -3.9801 N   0  0  0  0  0  0  0  0  0  0  0  0
   -3.1029    8.0859   -2.8612 N   0  0  0  0  0  0  0  0  0  0  0  0
   -4.4658    8.0003   -2.8394 C   0  0  0  0  0  0  0  0  0  0  0  0
   -5.1870    8.3524   -4.1096 C   0  0  0  0  0  0  0  0  0  0  0  0
   -6.3899    7.5708   -4.3117 N   0  0  0  0  0  0  0  0  0  0  0  0
   -6.5002    6.6359   -5.2579 C   0  0  0  0  0  0  0  0  0  0  0  0
   -7.9008    6.1108   -5.4109 C   0  0  0  0  0  0  0  0  0  0  0  0
   -8.0228    4.5885   -5.1273 C   0  0  0  0  0  0  0  0  0  0  0  0
   -9.4549    4.1275   -5.3604 C   0  0  0  0  0  0  0  0  0  0  0  0
   -7.6242    4.3005   -3.6738 C   0  0  0  0  0  0  0  0  0  0  0  0
   -8.3691    6.4736   -6.7378 N   0  0  0  0  0  0  0  0  0  0  0  0
   -9.1541    7.5867   -6.8576 C   0  0  0  0  0  0  0  0  0  0  0  0
   -9.7842    7.9299   -8.1837 C   0  0  0  0  0  0  0  0  0  0  0  0
  -10.6363    9.1957   -8.1051 C   0  0  0  0  0  0  0  0  0  0  0  0
  -11.3137    9.4341   -9.4062 C   0  0  0  0  0  0  0  0  0  0  0  0
  -12.0353    8.2182   -9.8059 N   0  0  0  0  0  0  0  0  0  0  0  0
  -13.3620    8.1531  -10.0193 C   0  0  0  0  0  0  0  0  0  0  0  0
  -14.1710    9.2383   -9.6882 C   0  0  0  0  0  0  0  0  0  0  0  0
  -14.9329   10.0703   -9.4677 C   0  0  0  0  0  0  0  0  0  0  0  0
  -15.8239   11.1244   -9.0653 C   0  0  0  0  0  0  0  0  0  0  0  0
  -15.1675   12.0203   -8.1103 N   0  0  0  0  0  0  0  0  0  0  0  0
  -14.5467   11.3211   -6.9696 C   0  0  0  0  0  0  0  0  0  0  0  0
  -14.2540   13.0032   -8.7014 C   0  0  0  0  0  0  0  0  0  0  0  0
  -17.0556   10.5092   -8.3709 C   0  0  0  0  0  0  0  0  0  0  0  0
  -16.2512   11.8946  -10.3175 C   0  0  0  0  0  0  0  0  0  0  0  0
  -13.8631    7.1292  -10.4663 O   0  0  0  0  0  0  0  0  0  0  0  0
  -11.2841    6.9952   -9.9044 C   0  0  0  0  0  0  0  0  0  0  0  0
  -10.6919    6.7749   -8.5536 C   0  0  0  0  0  0  0  0  0  0  0  0
   -9.3626    8.3149   -5.8771 O   0  0  0  0  0  0  0  0  0  0  0  0
   -7.9108    5.6345   -7.8761 C   0  0  0  0  0  0  0  0  0  0  0  0
   -5.5739    6.2820   -5.9678 O   0  0  0  0  0  0  0  0  0  0  0  0
   -5.6010    9.8559   -4.0118 C   0  0  0  0  0  0  0  0  0  0  0  0
   -6.0871   10.3648   -5.3555 C   0  0  0  0  0  0  0  0  0  0  0  0
   -4.8869   10.6149   -6.2240 C   0  0  0  0  0  0  0  0  0  0  0  0
   -5.3084   11.1756   -7.5208 N   0  0  0  0  0  0  0  0  0  0  0  0
   -6.1566   12.4395   -7.2793 C   0  0  0  0  0  0  0  0  0  0  0  0
   -7.3312   12.1060   -6.4153 C   0  0  0  0  0  0  0  0  0  0  0  0
   -6.8569   11.5571   -5.1661 O   0  0  0  0  0  0  0  0  0  0  0  0
   -5.0958    7.7296   -1.8401 O   0  0  0  0  0  0  0  0  0  0  0  0
   -2.2406    7.8344   -1.6982 C   0  0  0  0  0  0  0  0  0  0  0  0
   -1.4720    9.1244   -1.3835 C   0  0  0  0  0  0  0  0  0  0  0  0
   -0.7464    9.6337   -2.6176 C   0  0  0  0  0  0  0  0  0  0  0  0
   -0.7795    9.2379   -5.8599 O   0  0  0  0  0  0  0  0  0  0  0  0
   -2.0973   12.1501   -8.9816 C   0  0  0  0  0  0  0  0  0  0  0  0
   -1.9524   11.2717  -10.0432 C   0  0  0  0  0  0  0  0  0  0  0  0
   -2.9601   10.3035  -10.2806 C   0  0  0  0  0  0  0  0  0  0  0  0
   -4.0625   10.2752   -9.4192 C   0  0  0  0  0  0  0  0  0  0  0  0
   -4.1925   11.2122   -8.3712 C   0  0  0  0  0  0  0  0  0  0  0  0
   -3.1657   12.1312   -8.1681 C   0  0  0  0  0  0  0  0  0  0  0  0
   -8.7866    8.1256   -9.1361 F   0  0  0  0  0  0  0  0  0  0  0  0
  1  2  1  0  0  0  0
  2  3  1  0  0  0  0
  2  5  1  0  0  0  0
  3  4  1  0  0  0  0
  5  6  4  0  0  0  0
  5 10  4  0  0  0  0
  6  7  4  0  0  0  0
  7  8  4  0  0  0  0
  8  9  4  0  0  0  0
  9 10  4  0  0  0  0
 10 11  1  0  0  0  0
 11 12  4  0  0  0  0
 11 15  4  0  0  0  0
 12 13  1  0  0  0  0
 12 68  4  0  0  0  0
 13 14  1  0  0  0  0
 15 16  1  0  0  0  0
 15 67  4  0  0  0  0
 16 17  1  0  0  0  0
 17 18  1  0  0  0  0
 17 19  1  0  0  0  0
 17 20  1  0  0  0  0
 20 21  1  0  0  0  0
 21 22  1  0  0  0  0
 22 23  1  0  0  0  0
 22 66  2  0  0  0  0
 23 24  1  0  0  0  0
 23 65  1  0  0  0  0
 24 25  1  0  0  0  0
 25 26  1  0  0  0  0
 25 63  1  0  0  0  0
 26 27  1  0  0  0  0
 26 62  2  0  0  0  0
 27 28  1  0  0  0  0
 27 55  1  0  0  0  0
 28 29  1  0  0  0  0
 29 30  1  0  0  0  0
 29 54  2  0  0  0  0
 30 31  1  0  0  0  0
 30 34  1  0  0  0  0
 31 32  1  0  0  0  0
 31 33  1  0  0  0  0
 34 35  1  0  0  0  0
 34 53  1  0  0  0  0
 35 36  1  0  0  0  0
 35 52  2  0  0  0  0
 36 37  1  0  0  0  0
 36 51  1  0  0  0  0
 36 73  1  0  0  0  0
 37 38  1  0  0  0  0
 38 39  1  0  0  0  0
 39 40  1  0  0  0  0
 39 50  1  0  0  0  0
 40 41  1  0  0  0  0
 40 49  2  0  0  0  0
 41 42  1  0  0  0  0
 42 43  1  0  0  0  0
 43 44  1  0  0  0  0
 43 47  1  0  0  0  0
 43 48  1  0  0  0  0
 44 45  1  0  0  0  0
 44 46  1  0  0  0  0
 50 51  1  0  0  0  0
 55 56  1  0  0  0  0
 56 57  1  0  0  0  0
 56 61  1  0  0  0  0
 57 58  1  0  0  0  0
 58 59  1  0  0  0  0
 58 71  1  0  0  0  0
 59 60  1  0  0  0  0
 60 61  1  0  0  0  0
 63 64  1  0  0  0  0
 64 65  1  0  0  0  0
 67 68  4  0  0  0  0
 67 72  4  0  0  0  0
 68 69  4  0  0  0  0
 69 70  4  0  0  0  0
 70 71  4  0  0  0  0
 71 72  4  0  0  0  0
M  END
$$$$
