mol_ETKDG3_76
  PyMOL3.1          3D                             0

 73 79  0  0  0  0  0  0  0  0999 V2000
   -0.8800   15.5728  -11.6563 C   0  0  0  0  0  0  0  0  0  0  0  0
   -0.2577   14.3273  -12.3026 C   0  0  0  0  0  0  0  0  0  0  0  0
   -0.0365   14.5067  -13.6797 O   0  0  0  0  0  0  0  0  0  0  0  0
   -0.0178   13.3166  -14.4644 C   0  0  0  0  0  0  0  0  0  0  0  0
    1.0165   13.9511  -11.6266 C   0  0  0  0  0  0  0  0  0  0  0  0
    2.1272   14.5709  -11.9857 N   0  0  0  0  0  0  0  0  0  0  0  0
    3.3048   14.2478  -11.4249 C   0  0  0  0  0  0  0  0  0  0  0  0
    3.3793   13.2595  -10.4369 C   0  0  0  0  0  0  0  0  0  0  0  0
    2.2348   12.6251  -10.0627 C   0  0  0  0  0  0  0  0  0  0  0  0
    1.0590   12.9649  -10.6528 C   0  0  0  0  0  0  0  0  0  0  0  0
   -0.1514   12.3247  -10.2195 C   0  0  0  0  0  0  0  0  0  0  0  0
   -0.7499   11.2804  -10.8671 N   0  0  0  0  0  0  0  0  0  0  0  0
   -0.2654   10.5472  -12.0440 C   0  0  0  0  0  0  0  0  0  0  0  0
    0.3261    9.2182  -11.5927 C   0  0  0  0  0  0  0  0  0  0  0  0
   -0.9325   12.7182   -9.1446 C   0  0  0  0  0  0  0  0  0  0  0  0
   -0.7334   13.8021   -8.1158 C   0  0  0  0  0  0  0  0  0  0  0  0
   -0.1206   13.3498   -6.7467 C   0  0  0  0  0  0  0  0  0  0  0  0
   -0.8751   14.0687   -5.6245 C   0  0  0  0  0  0  0  0  0  0  0  0
    1.3656   13.7793   -6.6848 C   0  0  0  0  0  0  0  0  0  0  0  0
   -0.1217   11.9238   -6.5049 C   0  0  0  0  0  0  0  0  0  0  0  0
   -0.7605   11.4081   -5.2948 O   0  0  0  0  0  0  0  0  0  0  0  0
   -1.0190   10.0311   -5.1121 C   0  0  0  0  0  0  0  0  0  0  0  0
   -1.7273    9.7200   -3.8384 C   0  0  0  0  0  0  0  0  0  0  0  0
   -2.4440    8.4606   -4.0167 N   0  0  0  0  0  0  0  0  0  0  0  0
   -3.1226    8.0363   -2.8986 N   0  0  0  0  0  0  0  0  0  0  0  0
   -4.4860    7.9475   -2.8984 C   0  0  0  0  0  0  0  0  0  0  0  0
   -5.1992    8.2477   -4.1981 C   0  0  0  0  0  0  0  0  0  0  0  0
   -6.3796    7.4191   -4.3807 N   0  0  0  0  0  0  0  0  0  0  0  0
   -6.4589    6.4305   -5.2885 C   0  0  0  0  0  0  0  0  0  0  0  0
   -7.8137    5.8113   -5.4205 C   0  0  0  0  0  0  0  0  0  0  0  0
   -7.8640    4.3072   -4.9949 C   0  0  0  0  0  0  0  0  0  0  0  0
   -9.2550    3.7359   -5.2396 C   0  0  0  0  0  0  0  0  0  0  0  0
   -7.5066    4.1709   -3.5074 C   0  0  0  0  0  0  0  0  0  0  0  0
   -8.2748    5.9676   -6.7798 N   0  0  0  0  0  0  0  0  0  0  0  0
   -9.2850    6.8481   -7.0061 C   0  0  0  0  0  0  0  0  0  0  0  0
   -9.9805    6.8421   -8.3501 C   0  0  0  0  0  0  0  0  0  0  0  0
  -11.2151    7.7430   -8.3726 C   0  0  0  0  0  0  0  0  0  0  0  0
  -11.9686    7.5501   -9.6456 C   0  0  0  0  0  0  0  0  0  0  0  0
  -12.2383    6.1104   -9.8413 N   0  0  0  0  0  0  0  0  0  0  0  0
  -13.4747    5.5337   -9.8625 C   0  0  0  0  0  0  0  0  0  0  0  0
  -14.5935    6.3177   -9.6127 C   0  0  0  0  0  0  0  0  0  0  0  0
  -15.5788    6.8750   -9.4462 C   0  0  0  0  0  0  0  0  0  0  0  0
  -16.7503    7.6619   -9.1454 C   0  0  0  0  0  0  0  0  0  0  0  0
  -16.4586    8.6042   -8.0482 N   0  0  0  0  0  0  0  0  0  0  0  0
  -15.9158    7.9640   -6.8362 C   0  0  0  0  0  0  0  0  0  0  0  0
  -15.6418    9.7680   -8.4660 C   0  0  0  0  0  0  0  0  0  0  0  0
  -17.8840    6.7069   -8.7372 C   0  0  0  0  0  0  0  0  0  0  0  0
  -17.1417    8.4358  -10.4101 C   0  0  0  0  0  0  0  0  0  0  0  0
  -13.6085    4.3308  -10.0825 O   0  0  0  0  0  0  0  0  0  0  0  0
  -11.1178    5.2527   -9.8941 C   0  0  0  0  0  0  0  0  0  0  0  0
  -10.4606    5.4098   -8.5646 C   0  0  0  0  0  0  0  0  0  0  0  0
   -9.6645    7.6154   -6.1138 O   0  0  0  0  0  0  0  0  0  0  0  0
   -7.5975    5.1491   -7.8265 C   0  0  0  0  0  0  0  0  0  0  0  0
   -5.4926    6.0975   -5.9656 O   0  0  0  0  0  0  0  0  0  0  0  0
   -5.6406    9.7372   -4.1698 C   0  0  0  0  0  0  0  0  0  0  0  0
   -6.0896   10.1965   -5.5423 C   0  0  0  0  0  0  0  0  0  0  0  0
   -4.8713   10.3805   -6.4103 C   0  0  0  0  0  0  0  0  0  0  0  0
   -5.2524   10.9367   -7.7228 N   0  0  0  0  0  0  0  0  0  0  0  0
   -6.0682   12.2358   -7.5104 C   0  0  0  0  0  0  0  0  0  0  0  0
   -7.2569   11.9657   -6.6742 C   0  0  0  0  0  0  0  0  0  0  0  0
   -6.8244   11.4139   -5.4054 O   0  0  0  0  0  0  0  0  0  0  0  0
   -5.1246    7.7108   -1.8974 O   0  0  0  0  0  0  0  0  0  0  0  0
   -2.2883    7.8096   -1.7220 C   0  0  0  0  0  0  0  0  0  0  0  0
   -1.5031    9.1210   -1.4221 C   0  0  0  0  0  0  0  0  0  0  0  0
   -0.7597    9.5779   -2.6668 C   0  0  0  0  0  0  0  0  0  0  0  0
   -0.7443    9.0725   -5.8789 O   0  0  0  0  0  0  0  0  0  0  0  0
   -2.0194   11.8773   -9.1772 C   0  0  0  0  0  0  0  0  0  0  0  0
   -1.8851   10.9859  -10.2360 C   0  0  0  0  0  0  0  0  0  0  0  0
   -2.9047   10.0138  -10.4602 C   0  0  0  0  0  0  0  0  0  0  0  0
   -3.9942    9.9970   -9.6049 C   0  0  0  0  0  0  0  0  0  0  0  0
   -4.1152   10.9484   -8.5589 C   0  0  0  0  0  0  0  0  0  0  0  0
   -3.0716   11.8608   -8.3612 C   0  0  0  0  0  0  0  0  0  0  0  0
   -9.0836    7.2426   -9.3337 F   0  0  0  0  0  0  0  0  0  0  0  0
  1  2  1  0  0  0  0
  2  3  1  0  0  0  0
  2  5  1  0  0  0  0
  3  4  1  0  0  0  0
  5  6  4  0  0  0  0
  5 10  4  0  0  0  0
  6  7  4  0  0  0  0
  7  8  4  0  0  0  0
  8  9  4  0  0  0  0
  9 10  4  0  0  0  0
 10 11  1  0  0  0  0
 11 12  4  0  0  0  0
 11 15  4  0  0  0  0
 12 13  1  0  0  0  0
 12 68  4  0  0  0  0
 13 14  1  0  0  0  0
 15 16  1  0  0  0  0
 15 67  4  0  0  0  0
 16 17  1  0  0  0  0
 17 18  1  0  0  0  0
 17 19  1  0  0  0  0
 17 20  1  0  0  0  0
 20 21  1  0  0  0  0
 21 22  1  0  0  0  0
 22 23  1  0  0  0  0
 22 66  2  0  0  0  0
 23 24  1  0  0  0  0
 23 65  1  0  0  0  0
 24 25  1  0  0  0  0
 25 26  1  0  0  0  0
 25 63  1  0  0  0  0
 26 27  1  0  0  0  0
 26 62  2  0  0  0  0
 27 28  1  0  0  0  0
 27 55  1  0  0  0  0
 28 29  1  0  0  0  0
 29 30  1  0  0  0  0
 29 54  2  0  0  0  0
 30 31  1  0  0  0  0
 30 34  1  0  0  0  0
 31 32  1  0  0  0  0
 31 33  1  0  0  0  0
 34 35  1  0  0  0  0
 34 53  1  0  0  0  0
 35 36  1  0  0  0  0
 35 52  2  0  0  0  0
 36 37  1  0  0  0  0
 36 51  1  0  0  0  0
 36 73  1  0  0  0  0
 37 38  1  0  0  0  0
 38 39  1  0  0  0  0
 39 40  1  0  0  0  0
 39 50  1  0  0  0  0
 40 41  1  0  0  0  0
 40 49  2  0  0  0  0
 41 42  1  0  0  0  0
 42 43  1  0  0  0  0
 43 44  1  0  0  0  0
 43 47  1  0  0  0  0
 43 48  1  0  0  0  0
 44 45  1  0  0  0  0
 44 46  1  0  0  0  0
 50 51  1  0  0  0  0
 55 56  1  0  0  0  0
 56 57  1  0  0  0  0
 56 61  1  0  0  0  0
 57 58  1  0  0  0  0
 58 59  1  0  0  0  0
 58 71  1  0  0  0  0
 59 60  1  0  0  0  0
 60 61  1  0  0  0  0
 63 64  1  0  0  0  0
 64 65  1  0  0  0  0
 67 68  4  0  0  0  0
 67 72  4  0  0  0  0
 68 69  4  0  0  0  0
 69 70  4  0  0  0  0
 70 71  4  0  0  0  0
 71 72  4  0  0  0  0
M  END
$$$$
