mol_ETKDG1_40
  PyMOL3.1          3D                             0

 73 79  0  0  0  0  0  0  0  0999 V2000
   -0.0875   15.8349  -12.5928 C   0  0  0  0  0  0  0  0  0  0  0  0
   -0.1390   15.3884  -11.1386 C   0  0  0  0  0  0  0  0  0  0  0  0
   -0.2914   16.4463  -10.2327 O   0  0  0  0  0  0  0  0  0  0  0  0
   -1.6084   16.9459  -10.0033 C   0  0  0  0  0  0  0  0  0  0  0  0
    1.0930   14.6628  -10.7566 C   0  0  0  0  0  0  0  0  0  0  0  0
    2.2550   15.2297  -11.0318 N   0  0  0  0  0  0  0  0  0  0  0  0
    3.4063   14.6142  -10.7266 C   0  0  0  0  0  0  0  0  0  0  0  0
    3.4117   13.3530  -10.1225 C   0  0  0  0  0  0  0  0  0  0  0  0
    2.2204   12.7659   -9.8428 C   0  0  0  0  0  0  0  0  0  0  0  0
    1.0585   13.4206  -10.1558 C   0  0  0  0  0  0  0  0  0  0  0  0
   -0.1941   12.8141   -9.8113 C   0  0  0  0  0  0  0  0  0  0  0  0
   -0.8319   11.8762  -10.5633 N   0  0  0  0  0  0  0  0  0  0  0  0
   -0.3829   11.2991  -11.8351 C   0  0  0  0  0  0  0  0  0  0  0  0
    0.1372    9.8723  -11.6190 C   0  0  0  0  0  0  0  0  0  0  0  0
   -0.9754   13.1180   -8.6970 C   0  0  0  0  0  0  0  0  0  0  0  0
   -0.7580   14.0888   -7.5847 C   0  0  0  0  0  0  0  0  0  0  0  0
    0.0095   13.5306   -6.3612 C   0  0  0  0  0  0  0  0  0  0  0  0
   -0.5443   14.1694   -5.0793 C   0  0  0  0  0  0  0  0  0  0  0  0
    1.5148   13.8663   -6.4529 C   0  0  0  0  0  0  0  0  0  0  0  0
   -0.0365   12.0843   -6.2383 C   0  0  0  0  0  0  0  0  0  0  0  0
   -0.7205   11.4915   -5.1127 O   0  0  0  0  0  0  0  0  0  0  0  0
   -1.0127   10.1206   -5.0351 C   0  0  0  0  0  0  0  0  0  0  0  0
   -1.7324    9.7557   -3.7790 C   0  0  0  0  0  0  0  0  0  0  0  0
   -2.4151    8.4873   -3.9867 N   0  0  0  0  0  0  0  0  0  0  0  0
   -3.0855    8.0382   -2.8730 N   0  0  0  0  0  0  0  0  0  0  0  0
   -4.4469    7.9554   -2.8609 C   0  0  0  0  0  0  0  0  0  0  0  0
   -5.1709    8.2903   -4.1421 C   0  0  0  0  0  0  0  0  0  0  0  0
   -6.3460    7.4739   -4.3538 N   0  0  0  0  0  0  0  0  0  0  0  0
   -6.4228    6.5067   -5.2738 C   0  0  0  0  0  0  0  0  0  0  0  0
   -7.7900    5.9182   -5.4177 C   0  0  0  0  0  0  0  0  0  0  0  0
   -7.8640    4.4043   -5.0610 C   0  0  0  0  0  0  0  0  0  0  0  0
   -9.2641    3.8688   -5.3315 C   0  0  0  0  0  0  0  0  0  0  0  0
   -7.5191    4.2026   -3.5761 C   0  0  0  0  0  0  0  0  0  0  0  0
   -8.2751    6.1783   -6.7539 N   0  0  0  0  0  0  0  0  0  0  0  0
   -9.1673    7.1887   -6.9034 C   0  0  0  0  0  0  0  0  0  0  0  0
   -9.9123    7.3498   -8.2091 C   0  0  0  0  0  0  0  0  0  0  0  0
  -10.8617    8.5446   -8.1464 C   0  0  0  0  0  0  0  0  0  0  0  0
  -11.6941    8.5863   -9.3596 C   0  0  0  0  0  0  0  0  0  0  0  0
  -12.3688    7.2851   -9.5388 N   0  0  0  0  0  0  0  0  0  0  0  0
  -13.7053    7.1132   -9.5307 C   0  0  0  0  0  0  0  0  0  0  0  0
  -14.5104    8.1468   -9.0638 C   0  0  0  0  0  0  0  0  0  0  0  0
  -15.2791    8.8933   -8.6932 C   0  0  0  0  0  0  0  0  0  0  0  0
  -16.1084    9.9164   -8.1023 C   0  0  0  0  0  0  0  0  0  0  0  0
  -16.8808    9.3132   -6.9890 N   0  0  0  0  0  0  0  0  0  0  0  0
  -16.0093    8.8814   -5.8635 C   0  0  0  0  0  0  0  0  0  0  0  0
  -17.7870    8.2228   -7.4056 C   0  0  0  0  0  0  0  0  0  0  0  0
  -15.2237   11.0676   -7.5457 C   0  0  0  0  0  0  0  0  0  0  0  0
  -17.0320   10.4528   -9.1959 C   0  0  0  0  0  0  0  0  0  0  0  0
  -14.2117    6.0510   -9.8750 O   0  0  0  0  0  0  0  0  0  0  0  0
  -11.5272    6.1212   -9.6322 C   0  0  0  0  0  0  0  0  0  0  0  0
  -10.7507    6.0779   -8.3642 C   0  0  0  0  0  0  0  0  0  0  0  0
   -9.4143    7.9511   -5.9579 O   0  0  0  0  0  0  0  0  0  0  0  0
   -7.7456    5.3328   -7.8589 C   0  0  0  0  0  0  0  0  0  0  0  0
   -5.4706    6.1630   -5.9653 O   0  0  0  0  0  0  0  0  0  0  0  0
   -5.6297    9.7733   -4.0242 C   0  0  0  0  0  0  0  0  0  0  0  0
   -6.1263   10.3036   -5.3552 C   0  0  0  0  0  0  0  0  0  0  0  0
   -4.9156   10.5887   -6.1970 C   0  0  0  0  0  0  0  0  0  0  0  0
   -5.3182   11.2323   -7.4602 N   0  0  0  0  0  0  0  0  0  0  0  0
   -6.1772   12.4658   -7.1868 C   0  0  0  0  0  0  0  0  0  0  0  0
   -7.3736   12.0738   -6.3591 C   0  0  0  0  0  0  0  0  0  0  0  0
   -6.9167   11.4657   -5.1319 O   0  0  0  0  0  0  0  0  0  0  0  0
   -5.0802    7.6961   -1.8672 O   0  0  0  0  0  0  0  0  0  0  0  0
   -2.2483    7.7975   -1.7077 C   0  0  0  0  0  0  0  0  0  0  0  0
   -1.4970    9.1200   -1.3764 C   0  0  0  0  0  0  0  0  0  0  0  0
   -0.7625    9.6266   -2.6035 C   0  0  0  0  0  0  0  0  0  0  0  0
   -0.7650    9.2130   -5.8694 O   0  0  0  0  0  0  0  0  0  0  0  0
   -2.0786   12.3083   -8.8060 C   0  0  0  0  0  0  0  0  0  0  0  0
   -1.9657   11.5412   -9.9585 C   0  0  0  0  0  0  0  0  0  0  0  0
   -3.0033   10.6207  -10.2794 C   0  0  0  0  0  0  0  0  0  0  0  0
   -4.0937   10.5225   -9.4262 C   0  0  0  0  0  0  0  0  0  0  0  0
   -4.1957   11.3441   -8.2821 C   0  0  0  0  0  0  0  0  0  0  0  0
   -3.1524   12.2202   -7.9816 C   0  0  0  0  0  0  0  0  0  0  0  0
   -9.0205    7.5110   -9.2629 F   0  0  0  0  0  0  0  0  0  0  0  0
  1  2  1  0  0  0  0
  2  3  1  0  0  0  0
  2  5  1  0  0  0  0
  3  4  1  0  0  0  0
  5  6  4  0  0  0  0
  5 10  4  0  0  0  0
  6  7  4  0  0  0  0
  7  8  4  0  0  0  0
  8  9  4  0  0  0  0
  9 10  4  0  0  0  0
 10 11  1  0  0  0  0
 11 12  4  0  0  0  0
 11 15  4  0  0  0  0
 12 13  1  0  0  0  0
 12 68  4  0  0  0  0
 13 14  1  0  0  0  0
 15 16  1  0  0  0  0
 15 67  4  0  0  0  0
 16 17  1  0  0  0  0
 17 18  1  0  0  0  0
 17 19  1  0  0  0  0
 17 20  1  0  0  0  0
 20 21  1  0  0  0  0
 21 22  1  0  0  0  0
 22 23  1  0  0  0  0
 22 66  2  0  0  0  0
 23 24  1  0  0  0  0
 23 65  1  0  0  0  0
 24 25  1  0  0  0  0
 25 26  1  0  0  0  0
 25 63  1  0  0  0  0
 26 27  1  0  0  0  0
 26 62  2  0  0  0  0
 27 28  1  0  0  0  0
 27 55  1  0  0  0  0
 28 29  1  0  0  0  0
 29 30  1  0  0  0  0
 29 54  2  0  0  0  0
 30 31  1  0  0  0  0
 30 34  1  0  0  0  0
 31 32  1  0  0  0  0
 31 33  1  0  0  0  0
 34 35  1  0  0  0  0
 34 53  1  0  0  0  0
 35 36  1  0  0  0  0
 35 52  2  0  0  0  0
 36 37  1  0  0  0  0
 36 51  1  0  0  0  0
 36 73  1  0  0  0  0
 37 38  1  0  0  0  0
 38 39  1  0  0  0  0
 39 40  1  0  0  0  0
 39 50  1  0  0  0  0
 40 41  1  0  0  0  0
 40 49  2  0  0  0  0
 41 42  1  0  0  0  0
 42 43  1  0  0  0  0
 43 44  1  0  0  0  0
 43 47  1  0  0  0  0
 43 48  1  0  0  0  0
 44 45  1  0  0  0  0
 44 46  1  0  0  0  0
 50 51  1  0  0  0  0
 55 56  1  0  0  0  0
 56 57  1  0  0  0  0
 56 61  1  0  0  0  0
 57 58  1  0  0  0  0
 58 59  1  0  0  0  0
 58 71  1  0  0  0  0
 59 60  1  0  0  0  0
 60 61  1  0  0  0  0
 63 64  1  0  0  0  0
 64 65  1  0  0  0  0
 67 68  4  0  0  0  0
 67 72  4  0  0  0  0
 68 69  4  0  0  0  0
 69 70  4  0  0  0  0
 70 71  4  0  0  0  0
 71 72  4  0  0  0  0
M  END
$$$$
