mol_ETKDG0_157
  PyMOL3.1          3D                             0

 73 79  0  0  0  0  0  0  0  0999 V2000
   -0.4193   16.5755  -11.5170 C   0  0  0  0  0  0  0  0  0  0  0  0
   -0.4211   15.0655  -11.5723 C   0  0  0  0  0  0  0  0  0  0  0  0
   -0.7237   14.5359  -12.8289 O   0  0  0  0  0  0  0  0  0  0  0  0
   -2.0991   14.4101  -13.1686 C   0  0  0  0  0  0  0  0  0  0  0  0
    0.8756   14.4842  -11.1510 C   0  0  0  0  0  0  0  0  0  0  0  0
    2.0002   15.0766  -11.5381 N   0  0  0  0  0  0  0  0  0  0  0  0
    3.1965   14.5467  -11.2023 C   0  0  0  0  0  0  0  0  0  0  0  0
    3.2820   13.3877  -10.4268 C   0  0  0  0  0  0  0  0  0  0  0  0
    2.1267   12.7857  -10.0285 C   0  0  0  0  0  0  0  0  0  0  0  0
    0.9238   13.3236  -10.4052 C   0  0  0  0  0  0  0  0  0  0  0  0
   -0.2938   12.6977   -9.9799 C   0  0  0  0  0  0  0  0  0  0  0  0
   -0.9352   11.7157  -10.6668 N   0  0  0  0  0  0  0  0  0  0  0  0
   -0.4943   11.0415  -11.8977 C   0  0  0  0  0  0  0  0  0  0  0  0
    0.1853    9.7102  -11.5401 C   0  0  0  0  0  0  0  0  0  0  0  0
   -1.0469   13.0540   -8.8656 C   0  0  0  0  0  0  0  0  0  0  0  0
   -0.7774   14.0623   -7.7951 C   0  0  0  0  0  0  0  0  0  0  0  0
   -0.0849   13.5183   -6.5101 C   0  0  0  0  0  0  0  0  0  0  0  0
   -0.7469   14.1666   -5.2998 C   0  0  0  0  0  0  0  0  0  0  0  0
    1.4073   13.8891   -6.5089 C   0  0  0  0  0  0  0  0  0  0  0  0
   -0.1151   12.0686   -6.3588 C   0  0  0  0  0  0  0  0  0  0  0  0
   -0.7501   11.4955   -5.1886 O   0  0  0  0  0  0  0  0  0  0  0  0
   -1.0072   10.1165   -5.0552 C   0  0  0  0  0  0  0  0  0  0  0  0
   -1.7072    9.7802   -3.7789 C   0  0  0  0  0  0  0  0  0  0  0  0
   -2.4113    8.5200   -3.9609 N   0  0  0  0  0  0  0  0  0  0  0  0
   -3.0689    8.0877   -2.8367 N   0  0  0  0  0  0  0  0  0  0  0  0
   -4.4318    8.0219   -2.8026 C   0  0  0  0  0  0  0  0  0  0  0  0
   -5.1609    8.3797   -4.0646 C   0  0  0  0  0  0  0  0  0  0  0  0
   -6.3488    7.5856   -4.2572 N   0  0  0  0  0  0  0  0  0  0  0  0
   -6.4428    6.6258   -5.1757 C   0  0  0  0  0  0  0  0  0  0  0  0
   -7.8441    6.1066   -5.3169 C   0  0  0  0  0  0  0  0  0  0  0  0
   -7.9854    4.5890   -5.0197 C   0  0  0  0  0  0  0  0  0  0  0  0
   -9.4140    4.1433   -5.2831 C   0  0  0  0  0  0  0  0  0  0  0  0
   -7.6196    4.3063   -3.5587 C   0  0  0  0  0  0  0  0  0  0  0  0
   -8.3120    6.4626   -6.6370 N   0  0  0  0  0  0  0  0  0  0  0  0
   -9.0363    7.6207   -6.7683 C   0  0  0  0  0  0  0  0  0  0  0  0
   -9.7381    8.0478   -8.0183 C   0  0  0  0  0  0  0  0  0  0  0  0
  -11.1437    7.5093   -7.8835 C   0  0  0  0  0  0  0  0  0  0  0  0
  -11.9318    7.8755   -9.0704 C   0  0  0  0  0  0  0  0  0  0  0  0
  -11.2446    7.3492  -10.2203 N   0  0  0  0  0  0  0  0  0  0  0  0
  -11.7785    6.3180  -10.9093 C   0  0  0  0  0  0  0  0  0  0  0  0
  -13.0807    5.9518  -10.5201 C   0  0  0  0  0  0  0  0  0  0  0  0
  -14.1956    5.7257  -10.2374 C   0  0  0  0  0  0  0  0  0  0  0  0
  -15.5418    5.5003   -9.7598 C   0  0  0  0  0  0  0  0  0  0  0  0
  -15.8907    6.4570   -8.6804 N   0  0  0  0  0  0  0  0  0  0  0  0
  -15.1020    6.3022   -7.4465 C   0  0  0  0  0  0  0  0  0  0  0  0
  -15.9810    7.8698   -9.1003 C   0  0  0  0  0  0  0  0  0  0  0  0
  -16.5187    5.7203  -10.9258 C   0  0  0  0  0  0  0  0  0  0  0  0
  -15.6361    4.0765   -9.2221 C   0  0  0  0  0  0  0  0  0  0  0  0
  -11.1732    5.7733  -11.8199 O   0  0  0  0  0  0  0  0  0  0  0  0
   -9.9217    7.8779  -10.5065 C   0  0  0  0  0  0  0  0  0  0  0  0
   -9.0595    7.5955   -9.2953 C   0  0  0  0  0  0  0  0  0  0  0  0
   -9.2219    8.3408   -5.7707 O   0  0  0  0  0  0  0  0  0  0  0  0
   -7.9100    5.5590   -7.7274 C   0  0  0  0  0  0  0  0  0  0  0  0
   -5.5120    6.2615   -5.8806 O   0  0  0  0  0  0  0  0  0  0  0  0
   -5.6026    9.8770   -3.9523 C   0  0  0  0  0  0  0  0  0  0  0  0
   -6.1117   10.4015   -5.2811 C   0  0  0  0  0  0  0  0  0  0  0  0
   -4.9200   10.6562   -6.1611 C   0  0  0  0  0  0  0  0  0  0  0  0
   -5.3512   11.2712   -7.4338 N   0  0  0  0  0  0  0  0  0  0  0  0
   -6.1803   12.5305   -7.1534 C   0  0  0  0  0  0  0  0  0  0  0  0
   -7.3534   12.1817   -6.2882 C   0  0  0  0  0  0  0  0  0  0  0  0
   -6.8700   11.5977   -5.0643 O   0  0  0  0  0  0  0  0  0  0  0  0
   -5.0567    7.7620   -1.8001 O   0  0  0  0  0  0  0  0  0  0  0  0
   -2.2079    7.8462   -1.6736 C   0  0  0  0  0  0  0  0  0  0  0  0
   -1.4486    9.1419   -1.3736 C   0  0  0  0  0  0  0  0  0  0  0  0
   -0.7204    9.6396   -2.6094 C   0  0  0  0  0  0  0  0  0  0  0  0
   -0.7475    9.1939   -5.8607 O   0  0  0  0  0  0  0  0  0  0  0  0
   -2.1512   12.2451   -8.9140 C   0  0  0  0  0  0  0  0  0  0  0  0
   -2.0585   11.4167  -10.0228 C   0  0  0  0  0  0  0  0  0  0  0  0
   -3.0896   10.4836  -10.2756 C   0  0  0  0  0  0  0  0  0  0  0  0
   -4.1699   10.4411   -9.3876 C   0  0  0  0  0  0  0  0  0  0  0  0
   -4.2483   11.3249   -8.2951 C   0  0  0  0  0  0  0  0  0  0  0  0
   -3.1987   12.2106   -8.0679 C   0  0  0  0  0  0  0  0  0  0  0  0
   -9.7610    9.4291   -8.1119 F   0  0  0  0  0  0  0  0  0  0  0  0
  1  2  1  0  0  0  0
  2  3  1  0  0  0  0
  2  5  1  0  0  0  0
  3  4  1  0  0  0  0
  5  6  4  0  0  0  0
  5 10  4  0  0  0  0
  6  7  4  0  0  0  0
  7  8  4  0  0  0  0
  8  9  4  0  0  0  0
  9 10  4  0  0  0  0
 10 11  1  0  0  0  0
 11 12  4  0  0  0  0
 11 15  4  0  0  0  0
 12 13  1  0  0  0  0
 12 68  4  0  0  0  0
 13 14  1  0  0  0  0
 15 16  1  0  0  0  0
 15 67  4  0  0  0  0
 16 17  1  0  0  0  0
 17 18  1  0  0  0  0
 17 19  1  0  0  0  0
 17 20  1  0  0  0  0
 20 21  1  0  0  0  0
 21 22  1  0  0  0  0
 22 23  1  0  0  0  0
 22 66  2  0  0  0  0
 23 24  1  0  0  0  0
 23 65  1  0  0  0  0
 24 25  1  0  0  0  0
 25 26  1  0  0  0  0
 25 63  1  0  0  0  0
 26 27  1  0  0  0  0
 26 62  2  0  0  0  0
 27 28  1  0  0  0  0
 27 55  1  0  0  0  0
 28 29  1  0  0  0  0
 29 30  1  0  0  0  0
 29 54  2  0  0  0  0
 30 31  1  0  0  0  0
 30 34  1  0  0  0  0
 31 32  1  0  0  0  0
 31 33  1  0  0  0  0
 34 35  1  0  0  0  0
 34 53  1  0  0  0  0
 35 36  1  0  0  0  0
 35 52  2  0  0  0  0
 36 37  1  0  0  0  0
 36 51  1  0  0  0  0
 36 73  1  0  0  0  0
 37 38  1  0  0  0  0
 38 39  1  0  0  0  0
 39 40  1  0  0  0  0
 39 50  1  0  0  0  0
 40 41  1  0  0  0  0
 40 49  2  0  0  0  0
 41 42  1  0  0  0  0
 42 43  1  0  0  0  0
 43 44  1  0  0  0  0
 43 47  1  0  0  0  0
 43 48  1  0  0  0  0
 44 45  1  0  0  0  0
 44 46  1  0  0  0  0
 50 51  1  0  0  0  0
 55 56  1  0  0  0  0
 56 57  1  0  0  0  0
 56 61  1  0  0  0  0
 57 58  1  0  0  0  0
 58 59  1  0  0  0  0
 58 71  1  0  0  0  0
 59 60  1  0  0  0  0
 60 61  1  0  0  0  0
 63 64  1  0  0  0  0
 64 65  1  0  0  0  0
 67 68  4  0  0  0  0
 67 72  4  0  0  0  0
 68 69  4  0  0  0  0
 69 70  4  0  0  0  0
 70 71  4  0  0  0  0
 71 72  4  0  0  0  0
M  END
$$$$
