mol_ETKDG5_136
  PyMOL3.1          3D                             0

 73 79  0  0  0  0  0  0  0  0999 V2000
   -0.0400   15.1530  -13.1967 C   0  0  0  0  0  0  0  0  0  0  0  0
   -0.1765   14.7647  -11.7423 C   0  0  0  0  0  0  0  0  0  0  0  0
   -0.6170   15.8157  -10.9341 O   0  0  0  0  0  0  0  0  0  0  0  0
   -2.0133   16.0795  -10.8759 C   0  0  0  0  0  0  0  0  0  0  0  0
    1.0920   14.2792  -11.1662 C   0  0  0  0  0  0  0  0  0  0  0  0
    2.2173   14.8963  -11.4922 N   0  0  0  0  0  0  0  0  0  0  0  0
    3.3913   14.4712  -10.9909 C   0  0  0  0  0  0  0  0  0  0  0  0
    3.4566   13.3687  -10.1431 C   0  0  0  0  0  0  0  0  0  0  0  0
    2.3003   12.7318   -9.8205 C   0  0  0  0  0  0  0  0  0  0  0  0
    1.1186   13.1911  -10.3316 C   0  0  0  0  0  0  0  0  0  0  0  0
   -0.1140   12.5380   -9.9652 C   0  0  0  0  0  0  0  0  0  0  0  0
   -0.6933   11.5455  -10.6872 N   0  0  0  0  0  0  0  0  0  0  0  0
   -0.1827   10.9119  -11.9035 C   0  0  0  0  0  0  0  0  0  0  0  0
    0.3654    9.5213  -11.5659 C   0  0  0  0  0  0  0  0  0  0  0  0
   -0.9213   12.8671   -8.8867 C   0  0  0  0  0  0  0  0  0  0  0  0
   -0.7460   13.8899   -7.8241 C   0  0  0  0  0  0  0  0  0  0  0  0
   -0.0835   13.3779   -6.5086 C   0  0  0  0  0  0  0  0  0  0  0  0
   -0.8039   14.0308   -5.3302 C   0  0  0  0  0  0  0  0  0  0  0  0
    1.3989   13.8072   -6.4588 C   0  0  0  0  0  0  0  0  0  0  0  0
   -0.0608   11.9619   -6.3452 C   0  0  0  0  0  0  0  0  0  0  0  0
   -0.7356   11.3898   -5.1977 O   0  0  0  0  0  0  0  0  0  0  0  0
   -1.0092   10.0214   -5.0858 C   0  0  0  0  0  0  0  0  0  0  0  0
   -1.7236    9.6836   -3.8297 C   0  0  0  0  0  0  0  0  0  0  0  0
   -2.3984    8.4151   -4.0240 N   0  0  0  0  0  0  0  0  0  0  0  0
   -3.0748    7.9850   -2.9093 N   0  0  0  0  0  0  0  0  0  0  0  0
   -4.4322    7.8824   -2.9152 C   0  0  0  0  0  0  0  0  0  0  0  0
   -5.1388    8.1592   -4.2139 C   0  0  0  0  0  0  0  0  0  0  0  0
   -6.3088    7.3364   -4.4013 N   0  0  0  0  0  0  0  0  0  0  0  0
   -6.3993    6.3721   -5.3269 C   0  0  0  0  0  0  0  0  0  0  0  0
   -7.7752    5.7937   -5.4594 C   0  0  0  0  0  0  0  0  0  0  0  0
   -7.8945    4.3015   -5.0517 C   0  0  0  0  0  0  0  0  0  0  0  0
   -9.3288    3.8287   -5.2307 C   0  0  0  0  0  0  0  0  0  0  0  0
   -7.4828    4.1273   -3.5845 C   0  0  0  0  0  0  0  0  0  0  0  0
   -8.2407    6.0011   -6.8046 N   0  0  0  0  0  0  0  0  0  0  0  0
   -9.0890    7.0298   -7.0198 C   0  0  0  0  0  0  0  0  0  0  0  0
   -9.8014    7.1461   -8.3354 C   0  0  0  0  0  0  0  0  0  0  0  0
  -10.5423    8.4564   -8.4811 C   0  0  0  0  0  0  0  0  0  0  0  0
  -11.2966    8.4393   -9.7501 C   0  0  0  0  0  0  0  0  0  0  0  0
  -12.1582    7.2557   -9.7732 N   0  0  0  0  0  0  0  0  0  0  0  0
  -13.4970    7.2964   -9.8663 C   0  0  0  0  0  0  0  0  0  0  0  0
  -14.1035    8.5190   -9.9952 C   0  0  0  0  0  0  0  0  0  0  0  0
  -14.7294    9.4426  -10.1258 C   0  0  0  0  0  0  0  0  0  0  0  0
  -15.3808   10.6965  -10.2333 C   0  0  0  0  0  0  0  0  0  0  0  0
  -15.9395   11.0965   -8.9493 N   0  0  0  0  0  0  0  0  0  0  0  0
  -16.2225   10.0591   -7.9874 C   0  0  0  0  0  0  0  0  0  0  0  0
  -16.8290   12.2148   -8.9194 C   0  0  0  0  0  0  0  0  0  0  0  0
  -16.4732   10.5513  -11.2813 C   0  0  0  0  0  0  0  0  0  0  0  0
  -14.3601   11.7593  -10.6752 C   0  0  0  0  0  0  0  0  0  0  0  0
  -14.1639    6.2808   -9.8356 O   0  0  0  0  0  0  0  0  0  0  0  0
  -11.5298    5.9703   -9.6359 C   0  0  0  0  0  0  0  0  0  0  0  0
  -10.7976    5.9919   -8.3590 C   0  0  0  0  0  0  0  0  0  0  0  0
   -9.3273    7.8490   -6.1170 O   0  0  0  0  0  0  0  0  0  0  0  0
   -7.7410    5.0570   -7.8536 C   0  0  0  0  0  0  0  0  0  0  0  0
   -5.4606    6.0278   -6.0398 O   0  0  0  0  0  0  0  0  0  0  0  0
   -5.6057    9.6392   -4.1829 C   0  0  0  0  0  0  0  0  0  0  0  0
   -6.0597   10.0798   -5.5576 C   0  0  0  0  0  0  0  0  0  0  0  0
   -4.8250   10.3804   -6.3568 C   0  0  0  0  0  0  0  0  0  0  0  0
   -5.2070   10.9069   -7.6739 N   0  0  0  0  0  0  0  0  0  0  0  0
   -6.1354   12.0945   -7.5361 C   0  0  0  0  0  0  0  0  0  0  0  0
   -7.3474   11.6988   -6.7338 C   0  0  0  0  0  0  0  0  0  0  0  0
   -6.9095   11.2092   -5.4485 O   0  0  0  0  0  0  0  0  0  0  0  0
   -5.0684    7.6533   -1.9153 O   0  0  0  0  0  0  0  0  0  0  0  0
   -2.2459    7.7777   -1.7262 C   0  0  0  0  0  0  0  0  0  0  0  0
   -1.4885    9.0980   -1.4213 C   0  0  0  0  0  0  0  0  0  0  0  0
   -0.7560    9.5747   -2.6511 C   0  0  0  0  0  0  0  0  0  0  0  0
   -0.7498    9.0921   -5.8924 O   0  0  0  0  0  0  0  0  0  0  0  0
   -1.9928   12.0164   -8.9873 C   0  0  0  0  0  0  0  0  0  0  0  0
   -1.8272   11.2037  -10.0950 C   0  0  0  0  0  0  0  0  0  0  0  0
   -2.8275   10.2364  -10.4030 C   0  0  0  0  0  0  0  0  0  0  0  0
   -3.9262   10.1499   -9.5750 C   0  0  0  0  0  0  0  0  0  0  0  0
   -4.0720   11.0119   -8.4755 C   0  0  0  0  0  0  0  0  0  0  0  0
   -3.0729   11.9340   -8.1810 C   0  0  0  0  0  0  0  0  0  0  0  0
   -8.8949    7.0637   -9.3835 F   0  0  0  0  0  0  0  0  0  0  0  0
  1  2  1  0  0  0  0
  2  3  1  0  0  0  0
  2  5  1  0  0  0  0
  3  4  1  0  0  0  0
  5  6  4  0  0  0  0
  5 10  4  0  0  0  0
  6  7  4  0  0  0  0
  7  8  4  0  0  0  0
  8  9  4  0  0  0  0
  9 10  4  0  0  0  0
 10 11  1  0  0  0  0
 11 12  4  0  0  0  0
 11 15  4  0  0  0  0
 12 13  1  0  0  0  0
 12 68  4  0  0  0  0
 13 14  1  0  0  0  0
 15 16  1  0  0  0  0
 15 67  4  0  0  0  0
 16 17  1  0  0  0  0
 17 18  1  0  0  0  0
 17 19  1  0  0  0  0
 17 20  1  0  0  0  0
 20 21  1  0  0  0  0
 21 22  1  0  0  0  0
 22 23  1  0  0  0  0
 22 66  2  0  0  0  0
 23 24  1  0  0  0  0
 23 65  1  0  0  0  0
 24 25  1  0  0  0  0
 25 26  1  0  0  0  0
 25 63  1  0  0  0  0
 26 27  1  0  0  0  0
 26 62  2  0  0  0  0
 27 28  1  0  0  0  0
 27 55  1  0  0  0  0
 28 29  1  0  0  0  0
 29 30  1  0  0  0  0
 29 54  2  0  0  0  0
 30 31  1  0  0  0  0
 30 34  1  0  0  0  0
 31 32  1  0  0  0  0
 31 33  1  0  0  0  0
 34 35  1  0  0  0  0
 34 53  1  0  0  0  0
 35 36  1  0  0  0  0
 35 52  2  0  0  0  0
 36 37  1  0  0  0  0
 36 51  1  0  0  0  0
 36 73  1  0  0  0  0
 37 38  1  0  0  0  0
 38 39  1  0  0  0  0
 39 40  1  0  0  0  0
 39 50  1  0  0  0  0
 40 41  1  0  0  0  0
 40 49  2  0  0  0  0
 41 42  1  0  0  0  0
 42 43  1  0  0  0  0
 43 44  1  0  0  0  0
 43 47  1  0  0  0  0
 43 48  1  0  0  0  0
 44 45  1  0  0  0  0
 44 46  1  0  0  0  0
 50 51  1  0  0  0  0
 55 56  1  0  0  0  0
 56 57  1  0  0  0  0
 56 61  1  0  0  0  0
 57 58  1  0  0  0  0
 58 59  1  0  0  0  0
 58 71  1  0  0  0  0
 59 60  1  0  0  0  0
 60 61  1  0  0  0  0
 63 64  1  0  0  0  0
 64 65  1  0  0  0  0
 67 68  4  0  0  0  0
 67 72  4  0  0  0  0
 68 69  4  0  0  0  0
 69 70  4  0  0  0  0
 70 71  4  0  0  0  0
 71 72  4  0  0  0  0
M  END
$$$$
