mol_ETKDG4_111
  PyMOL3.1          3D                             0

 73 79  0  0  0  0  0  0  0  0999 V2000
    0.1615   15.2766  -13.0794 C   0  0  0  0  0  0  0  0  0  0  0  0
   -0.0556   14.7231  -11.6895 C   0  0  0  0  0  0  0  0  0  0  0  0
   -0.5290   15.6843  -10.7971 O   0  0  0  0  0  0  0  0  0  0  0  0
   -1.9167   16.0054  -10.8426 C   0  0  0  0  0  0  0  0  0  0  0  0
    1.1880   14.1678  -11.1139 C   0  0  0  0  0  0  0  0  0  0  0  0
    2.3428   14.7283  -11.4287 N   0  0  0  0  0  0  0  0  0  0  0  0
    3.4970   14.2260  -10.9395 C   0  0  0  0  0  0  0  0  0  0  0  0
    3.5034   13.1110  -10.1186 C   0  0  0  0  0  0  0  0  0  0  0  0
    2.3112   12.5328   -9.8032 C   0  0  0  0  0  0  0  0  0  0  0  0
    1.1588   13.0682  -10.2907 C   0  0  0  0  0  0  0  0  0  0  0  0
   -0.0897   12.4834   -9.9138 C   0  0  0  0  0  0  0  0  0  0  0  0
   -0.7165   11.5061  -10.6133 N   0  0  0  0  0  0  0  0  0  0  0  0
   -0.2492   10.8383  -11.8359 C   0  0  0  0  0  0  0  0  0  0  0  0
    0.3181    9.4536  -11.4973 C   0  0  0  0  0  0  0  0  0  0  0  0
   -0.8745   12.8618   -8.8297 C   0  0  0  0  0  0  0  0  0  0  0  0
   -0.6553   13.8948   -7.7698 C   0  0  0  0  0  0  0  0  0  0  0  0
    0.0738   13.3920   -6.4913 C   0  0  0  0  0  0  0  0  0  0  0  0
   -0.5464   14.0829   -5.2732 C   0  0  0  0  0  0  0  0  0  0  0  0
    1.5663   13.7569   -6.5594 C   0  0  0  0  0  0  0  0  0  0  0  0
    0.0313   11.9660   -6.3065 C   0  0  0  0  0  0  0  0  0  0  0  0
   -0.6611   11.4275   -5.1512 O   0  0  0  0  0  0  0  0  0  0  0  0
   -0.9272   10.0564   -5.0058 C   0  0  0  0  0  0  0  0  0  0  0  0
   -1.6573    9.7374   -3.7506 C   0  0  0  0  0  0  0  0  0  0  0  0
   -2.3696    8.4894   -3.9590 N   0  0  0  0  0  0  0  0  0  0  0  0
   -3.0589    8.0487   -2.8501 N   0  0  0  0  0  0  0  0  0  0  0  0
   -4.4178    7.9601   -2.8580 C   0  0  0  0  0  0  0  0  0  0  0  0
   -5.1164    8.2883   -4.1396 C   0  0  0  0  0  0  0  0  0  0  0  0
   -6.2813    7.4665   -4.3563 N   0  0  0  0  0  0  0  0  0  0  0  0
   -6.3292    6.5037   -5.2776 C   0  0  0  0  0  0  0  0  0  0  0  0
   -7.6700    5.8960   -5.4559 C   0  0  0  0  0  0  0  0  0  0  0  0
   -7.7253    4.3822   -5.0647 C   0  0  0  0  0  0  0  0  0  0  0  0
   -9.0987    3.8098   -5.3877 C   0  0  0  0  0  0  0  0  0  0  0  0
   -7.4512    4.2202   -3.5626 C   0  0  0  0  0  0  0  0  0  0  0  0
   -8.0661    6.0865   -6.8235 N   0  0  0  0  0  0  0  0  0  0  0  0
   -9.0811    6.9469   -7.0769 C   0  0  0  0  0  0  0  0  0  0  0  0
   -9.6737    6.9872   -8.4624 C   0  0  0  0  0  0  0  0  0  0  0  0
  -11.0155    7.7108   -8.5334 C   0  0  0  0  0  0  0  0  0  0  0  0
  -11.6262    7.5202   -9.8861 C   0  0  0  0  0  0  0  0  0  0  0  0
  -11.6235    6.0919  -10.2531 N   0  0  0  0  0  0  0  0  0  0  0  0
  -12.6683    5.3018  -10.5690 C   0  0  0  0  0  0  0  0  0  0  0  0
  -13.9424    5.8274  -10.5863 C   0  0  0  0  0  0  0  0  0  0  0  0
  -15.0519    6.0708  -10.6660 C   0  0  0  0  0  0  0  0  0  0  0  0
  -16.4189    6.4672  -10.6858 C   0  0  0  0  0  0  0  0  0  0  0  0
  -17.1761    5.6101   -9.7361 N   0  0  0  0  0  0  0  0  0  0  0  0
  -16.7875    5.8261   -8.3243 C   0  0  0  0  0  0  0  0  0  0  0  0
  -17.1576    4.1777  -10.0949 C   0  0  0  0  0  0  0  0  0  0  0  0
  -16.5284    7.9435  -10.2826 C   0  0  0  0  0  0  0  0  0  0  0  0
  -16.9277    6.2741  -12.1172 C   0  0  0  0  0  0  0  0  0  0  0  0
  -12.5102    4.1138  -10.8309 O   0  0  0  0  0  0  0  0  0  0  0  0
  -10.3864    5.4352  -10.2054 C   0  0  0  0  0  0  0  0  0  0  0  0
   -9.9587    5.5539   -8.8103 C   0  0  0  0  0  0  0  0  0  0  0  0
   -9.5432    7.6649   -6.1850 O   0  0  0  0  0  0  0  0  0  0  0  0
   -7.3027    5.3291   -7.8580 C   0  0  0  0  0  0  0  0  0  0  0  0
   -5.3494    6.1966   -5.9438 O   0  0  0  0  0  0  0  0  0  0  0  0
   -5.5768    9.7742   -4.0603 C   0  0  0  0  0  0  0  0  0  0  0  0
   -6.0475   10.2521   -5.4067 C   0  0  0  0  0  0  0  0  0  0  0  0
   -4.8298   10.4967   -6.2540 C   0  0  0  0  0  0  0  0  0  0  0  0
   -5.2203   11.0771   -7.5474 N   0  0  0  0  0  0  0  0  0  0  0  0
   -6.0686   12.3310   -7.3267 C   0  0  0  0  0  0  0  0  0  0  0  0
   -7.2670   11.9887   -6.5052 C   0  0  0  0  0  0  0  0  0  0  0  0
   -6.8296   11.4310   -5.2426 O   0  0  0  0  0  0  0  0  0  0  0  0
   -5.0614    7.6978   -1.8667 O   0  0  0  0  0  0  0  0  0  0  0  0
   -2.2421    7.8030   -1.6718 C   0  0  0  0  0  0  0  0  0  0  0  0
   -1.4559    9.1013   -1.3478 C   0  0  0  0  0  0  0  0  0  0  0  0
   -0.6992    9.5803   -2.5699 C   0  0  0  0  0  0  0  0  0  0  0  0
   -0.6504    9.1057   -5.7842 O   0  0  0  0  0  0  0  0  0  0  0  0
   -1.9761   12.0549   -8.9044 C   0  0  0  0  0  0  0  0  0  0  0  0
   -1.8549   11.2163  -10.0068 C   0  0  0  0  0  0  0  0  0  0  0  0
   -2.8896   10.2855  -10.2864 C   0  0  0  0  0  0  0  0  0  0  0  0
   -3.9861   10.2479   -9.4467 C   0  0  0  0  0  0  0  0  0  0  0  0
   -4.0900   11.1331   -8.3607 C   0  0  0  0  0  0  0  0  0  0  0  0
   -3.0454   12.0250   -8.0933 C   0  0  0  0  0  0  0  0  0  0  0  0
   -8.7649    7.5784   -9.3285 F   0  0  0  0  0  0  0  0  0  0  0  0
  1  2  1  0  0  0  0
  2  3  1  0  0  0  0
  2  5  1  0  0  0  0
  3  4  1  0  0  0  0
  5  6  4  0  0  0  0
  5 10  4  0  0  0  0
  6  7  4  0  0  0  0
  7  8  4  0  0  0  0
  8  9  4  0  0  0  0
  9 10  4  0  0  0  0
 10 11  1  0  0  0  0
 11 12  4  0  0  0  0
 11 15  4  0  0  0  0
 12 13  1  0  0  0  0
 12 68  4  0  0  0  0
 13 14  1  0  0  0  0
 15 16  1  0  0  0  0
 15 67  4  0  0  0  0
 16 17  1  0  0  0  0
 17 18  1  0  0  0  0
 17 19  1  0  0  0  0
 17 20  1  0  0  0  0
 20 21  1  0  0  0  0
 21 22  1  0  0  0  0
 22 23  1  0  0  0  0
 22 66  2  0  0  0  0
 23 24  1  0  0  0  0
 23 65  1  0  0  0  0
 24 25  1  0  0  0  0
 25 26  1  0  0  0  0
 25 63  1  0  0  0  0
 26 27  1  0  0  0  0
 26 62  2  0  0  0  0
 27 28  1  0  0  0  0
 27 55  1  0  0  0  0
 28 29  1  0  0  0  0
 29 30  1  0  0  0  0
 29 54  2  0  0  0  0
 30 31  1  0  0  0  0
 30 34  1  0  0  0  0
 31 32  1  0  0  0  0
 31 33  1  0  0  0  0
 34 35  1  0  0  0  0
 34 53  1  0  0  0  0
 35 36  1  0  0  0  0
 35 52  2  0  0  0  0
 36 37  1  0  0  0  0
 36 51  1  0  0  0  0
 36 73  1  0  0  0  0
 37 38  1  0  0  0  0
 38 39  1  0  0  0  0
 39 40  1  0  0  0  0
 39 50  1  0  0  0  0
 40 41  1  0  0  0  0
 40 49  2  0  0  0  0
 41 42  1  0  0  0  0
 42 43  1  0  0  0  0
 43 44  1  0  0  0  0
 43 47  1  0  0  0  0
 43 48  1  0  0  0  0
 44 45  1  0  0  0  0
 44 46  1  0  0  0  0
 50 51  1  0  0  0  0
 55 56  1  0  0  0  0
 56 57  1  0  0  0  0
 56 61  1  0  0  0  0
 57 58  1  0  0  0  0
 58 59  1  0  0  0  0
 58 71  1  0  0  0  0
 59 60  1  0  0  0  0
 60 61  1  0  0  0  0
 63 64  1  0  0  0  0
 64 65  1  0  0  0  0
 67 68  4  0  0  0  0
 67 72  4  0  0  0  0
 68 69  4  0  0  0  0
 69 70  4  0  0  0  0
 70 71  4  0  0  0  0
 71 72  4  0  0  0  0
M  END
$$$$
