mol_ETKDG2_55
  PyMOL3.1          3D                             0

 73 79  0  0  0  0  0  0  0  0999 V2000
   -0.2776   16.5322  -11.8090 C   0  0  0  0  0  0  0  0  0  0  0  0
   -0.4912   15.1637  -11.2043 C   0  0  0  0  0  0  0  0  0  0  0  0
   -1.3602   14.4312  -12.0198 O   0  0  0  0  0  0  0  0  0  0  0  0
   -2.7547   14.6446  -11.8087 C   0  0  0  0  0  0  0  0  0  0  0  0
    0.7780   14.4115  -11.0450 C   0  0  0  0  0  0  0  0  0  0  0  0
    1.9035   14.9695  -11.4662 N   0  0  0  0  0  0  0  0  0  0  0  0
    3.0733   14.3392  -11.3503 C   0  0  0  0  0  0  0  0  0  0  0  0
    3.1527   13.0838  -10.7631 C   0  0  0  0  0  0  0  0  0  0  0  0
    2.0168   12.4984  -10.3285 C   0  0  0  0  0  0  0  0  0  0  0  0
    0.8293   13.1440  -10.4881 C   0  0  0  0  0  0  0  0  0  0  0  0
   -0.3745   12.5140  -10.0253 C   0  0  0  0  0  0  0  0  0  0  0  0
   -1.0347   11.5373  -10.7068 N   0  0  0  0  0  0  0  0  0  0  0  0
   -0.6543   10.8973  -11.9641 C   0  0  0  0  0  0  0  0  0  0  0  0
   -0.0449    9.5224  -11.6765 C   0  0  0  0  0  0  0  0  0  0  0  0
   -1.0869   12.8490   -8.8829 C   0  0  0  0  0  0  0  0  0  0  0  0
   -0.8034   13.8508   -7.8109 C   0  0  0  0  0  0  0  0  0  0  0  0
    0.0329   13.3176   -6.6095 C   0  0  0  0  0  0  0  0  0  0  0  0
   -0.4112   14.0541   -5.3425 C   0  0  0  0  0  0  0  0  0  0  0  0
    1.5343   13.6084   -6.8407 C   0  0  0  0  0  0  0  0  0  0  0  0
   -0.0472   11.9098   -6.4050 C   0  0  0  0  0  0  0  0  0  0  0  0
   -0.7350   11.3847   -5.2310 O   0  0  0  0  0  0  0  0  0  0  0  0
   -1.0200   10.0200   -5.0655 C   0  0  0  0  0  0  0  0  0  0  0  0
   -1.7311    9.7102   -3.7963 C   0  0  0  0  0  0  0  0  0  0  0  0
   -2.4439    8.4564   -3.9787 N   0  0  0  0  0  0  0  0  0  0  0  0
   -3.1081    8.0192   -2.8575 N   0  0  0  0  0  0  0  0  0  0  0  0
   -4.4687    7.9197   -2.8338 C   0  0  0  0  0  0  0  0  0  0  0  0
   -5.1991    8.2533   -4.1027 C   0  0  0  0  0  0  0  0  0  0  0  0
   -6.3671    7.4172   -4.3074 N   0  0  0  0  0  0  0  0  0  0  0  0
   -6.4385    6.4529   -5.2199 C   0  0  0  0  0  0  0  0  0  0  0  0
   -7.7876    5.8307   -5.3744 C   0  0  0  0  0  0  0  0  0  0  0  0
   -7.8305    4.3249   -4.9700 C   0  0  0  0  0  0  0  0  0  0  0  0
   -9.2223    3.7558   -5.2198 C   0  0  0  0  0  0  0  0  0  0  0  0
   -7.4751    4.1636   -3.4868 C   0  0  0  0  0  0  0  0  0  0  0  0
   -8.2409    6.0021   -6.7271 N   0  0  0  0  0  0  0  0  0  0  0  0
   -9.2551    6.8723   -6.9493 C   0  0  0  0  0  0  0  0  0  0  0  0
   -9.9388    6.8592   -8.2953 C   0  0  0  0  0  0  0  0  0  0  0  0
  -11.1358    7.7940   -8.3761 C   0  0  0  0  0  0  0  0  0  0  0  0
  -11.8240    7.5917   -9.6821 C   0  0  0  0  0  0  0  0  0  0  0  0
  -12.1532    6.1654   -9.8638 N   0  0  0  0  0  0  0  0  0  0  0  0
  -13.3963    5.6544  -10.0436 C   0  0  0  0  0  0  0  0  0  0  0  0
  -14.4665    6.5118  -10.0371 C   0  0  0  0  0  0  0  0  0  0  0  0
  -15.4293    7.1086  -10.0757 C   0  0  0  0  0  0  0  0  0  0  0  0
  -16.5249    8.0313  -10.0338 C   0  0  0  0  0  0  0  0  0  0  0  0
  -17.5562    7.5428   -9.0988 N   0  0  0  0  0  0  0  0  0  0  0  0
  -17.0252    7.1548   -7.7798 C   0  0  0  0  0  0  0  0  0  0  0  0
  -18.4553    6.5170   -9.6491 C   0  0  0  0  0  0  0  0  0  0  0  0
  -16.0398    9.4226   -9.5626 C   0  0  0  0  0  0  0  0  0  0  0  0
  -17.0708    8.1461  -11.4579 C   0  0  0  0  0  0  0  0  0  0  0  0
  -13.5804    4.4576  -10.1958 O   0  0  0  0  0  0  0  0  0  0  0  0
  -11.0762    5.2422   -9.7826 C   0  0  0  0  0  0  0  0  0  0  0  0
  -10.4697    5.4434   -8.4510 C   0  0  0  0  0  0  0  0  0  0  0  0
   -9.6449    7.6307   -6.0617 O   0  0  0  0  0  0  0  0  0  0  0  0
   -7.5546    5.2026   -7.7796 C   0  0  0  0  0  0  0  0  0  0  0  0
   -5.4732    6.1320   -5.9045 O   0  0  0  0  0  0  0  0  0  0  0  0
   -5.6651    9.7184   -3.9852 C   0  0  0  0  0  0  0  0  0  0  0  0
   -6.1513   10.2202   -5.3140 C   0  0  0  0  0  0  0  0  0  0  0  0
   -4.9474   10.4869   -6.1537 C   0  0  0  0  0  0  0  0  0  0  0  0
   -5.3633   11.0717   -7.4222 N   0  0  0  0  0  0  0  0  0  0  0  0
   -6.2073   12.3215   -7.1772 C   0  0  0  0  0  0  0  0  0  0  0  0
   -7.3972   11.9669   -6.3398 C   0  0  0  0  0  0  0  0  0  0  0  0
   -6.9394   11.3907   -5.1104 O   0  0  0  0  0  0  0  0  0  0  0  0
   -5.0931    7.6609   -1.8356 O   0  0  0  0  0  0  0  0  0  0  0  0
   -2.2669    7.7862   -1.6906 C   0  0  0  0  0  0  0  0  0  0  0  0
   -1.4957    9.0961   -1.3866 C   0  0  0  0  0  0  0  0  0  0  0  0
   -0.7594    9.5718   -2.6252 C   0  0  0  0  0  0  0  0  0  0  0  0
   -0.7683    9.0668   -5.8471 O   0  0  0  0  0  0  0  0  0  0  0  0
   -2.1907   12.0404   -8.9114 C   0  0  0  0  0  0  0  0  0  0  0  0
   -2.1312   11.2261  -10.0325 C   0  0  0  0  0  0  0  0  0  0  0  0
   -3.1746   10.2936  -10.2674 C   0  0  0  0  0  0  0  0  0  0  0  0
   -4.2196   10.2447   -9.3740 C   0  0  0  0  0  0  0  0  0  0  0  0
   -4.2744   11.1220   -8.2716 C   0  0  0  0  0  0  0  0  0  0  0  0
   -3.2140   11.9980   -8.0472 C   0  0  0  0  0  0  0  0  0  0  0  0
   -9.0247    7.2064   -9.2743 F   0  0  0  0  0  0  0  0  0  0  0  0
  1  2  1  0  0  0  0
  2  3  1  0  0  0  0
  2  5  1  0  0  0  0
  3  4  1  0  0  0  0
  5  6  4  0  0  0  0
  5 10  4  0  0  0  0
  6  7  4  0  0  0  0
  7  8  4  0  0  0  0
  8  9  4  0  0  0  0
  9 10  4  0  0  0  0
 10 11  1  0  0  0  0
 11 12  4  0  0  0  0
 11 15  4  0  0  0  0
 12 13  1  0  0  0  0
 12 68  4  0  0  0  0
 13 14  1  0  0  0  0
 15 16  1  0  0  0  0
 15 67  4  0  0  0  0
 16 17  1  0  0  0  0
 17 18  1  0  0  0  0
 17 19  1  0  0  0  0
 17 20  1  0  0  0  0
 20 21  1  0  0  0  0
 21 22  1  0  0  0  0
 22 23  1  0  0  0  0
 22 66  2  0  0  0  0
 23 24  1  0  0  0  0
 23 65  1  0  0  0  0
 24 25  1  0  0  0  0
 25 26  1  0  0  0  0
 25 63  1  0  0  0  0
 26 27  1  0  0  0  0
 26 62  2  0  0  0  0
 27 28  1  0  0  0  0
 27 55  1  0  0  0  0
 28 29  1  0  0  0  0
 29 30  1  0  0  0  0
 29 54  2  0  0  0  0
 30 31  1  0  0  0  0
 30 34  1  0  0  0  0
 31 32  1  0  0  0  0
 31 33  1  0  0  0  0
 34 35  1  0  0  0  0
 34 53  1  0  0  0  0
 35 36  1  0  0  0  0
 35 52  2  0  0  0  0
 36 37  1  0  0  0  0
 36 51  1  0  0  0  0
 36 73  1  0  0  0  0
 37 38  1  0  0  0  0
 38 39  1  0  0  0  0
 39 40  1  0  0  0  0
 39 50  1  0  0  0  0
 40 41  1  0  0  0  0
 40 49  2  0  0  0  0
 41 42  1  0  0  0  0
 42 43  1  0  0  0  0
 43 44  1  0  0  0  0
 43 47  1  0  0  0  0
 43 48  1  0  0  0  0
 44 45  1  0  0  0  0
 44 46  1  0  0  0  0
 50 51  1  0  0  0  0
 55 56  1  0  0  0  0
 56 57  1  0  0  0  0
 56 61  1  0  0  0  0
 57 58  1  0  0  0  0
 58 59  1  0  0  0  0
 58 71  1  0  0  0  0
 59 60  1  0  0  0  0
 60 61  1  0  0  0  0
 63 64  1  0  0  0  0
 64 65  1  0  0  0  0
 67 68  4  0  0  0  0
 67 72  4  0  0  0  0
 68 69  4  0  0  0  0
 69 70  4  0  0  0  0
 70 71  4  0  0  0  0
 71 72  4  0  0  0  0
M  END
$$$$
