 xtb: 6.7.1 (edcfbbe)
          08172522343D

151157  0     0  0            999 V2000
    1.6575    6.8071   -7.8966 C   0  0  0  0  0  0  0  0  0  0  0  0
    1.6191    5.3979   -7.3087 C   0  0  0  0  0  0  0  0  0  0  0  0
    2.8366    4.6957   -7.5143 O   0  0  0  0  0  0  0  0  0  0  0  0
    3.8424    4.9877   -6.5809 C   0  0  0  0  0  0  0  0  0  0  0  0
    0.5274    4.5625   -7.9495 C   0  0  0  0  0  0  0  0  0  0  0  0
    0.0922    4.9445   -9.1375 N   0  0  0  0  0  0  0  0  0  0  0  0
   -0.8639    4.2537   -9.7301 C   0  0  0  0  0  0  0  0  0  0  0  0
   -1.4643    3.1455   -9.1551 C   0  0  0  0  0  0  0  0  0  0  0  0
   -1.0172    2.7393   -7.9095 C   0  0  0  0  0  0  0  0  0  0  0  0
    0.0131    3.4380   -7.2879 C   0  0  0  0  0  0  0  0  0  0  0  0
    0.5108    3.0409   -5.9623 C   0  0  0  0  0  0  0  0  0  0  0  0
   -0.1421    3.4670   -4.8268 N   0  0  0  0  0  0  0  0  0  0  0  0
   -1.3479    4.2493   -4.7812 C   0  0  0  0  0  0  0  0  0  0  0  0
   -2.5851    3.3799   -4.5593 C   0  0  0  0  0  0  0  0  0  0  0  0
    1.6233    2.3067   -5.6271 C   0  0  0  0  0  0  0  0  0  0  0  0
    2.5936    1.6889   -6.5821 C   0  0  0  0  0  0  0  0  0  0  0  0
    2.3329    0.2073   -6.9413 C   0  0  0  0  0  0  0  0  0  0  0  0
    0.8658   -0.0256   -7.2961 C   0  0  0  0  0  0  0  0  0  0  0  0
    3.2099   -0.1672   -8.1386 C   0  0  0  0  0  0  0  0  0  0  0  0
    2.6840   -0.7017   -5.7591 C   0  0  0  0  0  0  0  0  0  0  0  0
    4.0916   -0.6382   -5.5081 O   0  0  0  0  0  0  0  0  0  0  0  0
    4.5347   -1.2769   -4.4359 C   0  0  0  0  0  0  0  0  0  0  0  0
    6.0339   -1.0965   -4.2488 C   0  0  0  0  0  0  0  0  0  0  0  0
    6.5994   -2.2060   -3.5014 N   0  0  0  0  0  0  0  0  0  0  0  0
    7.8628   -1.8453   -3.0276 N   0  0  0  0  0  0  0  0  0  0  0  0
    8.1083   -1.1572   -1.8886 C   0  0  0  0  0  0  0  0  0  0  0  0
    6.9115   -0.9794   -0.9321 C   0  0  0  0  0  0  0  0  0  0  0  0
    7.0275   -1.9183    0.1607 N   0  0  0  0  0  0  0  0  0  0  0  0
    6.5028   -3.1483    0.0711 C   0  0  0  0  0  0  0  0  0  0  0  0
    6.5929   -3.9277    1.3856 C   0  0  0  0  0  0  0  0  0  0  0  0
    6.6040   -5.4460    1.1722 C   0  0  0  0  0  0  0  0  0  0  0  0
    6.4740   -6.1798    2.5036 C   0  0  0  0  0  0  0  0  0  0  0  0
    7.9095   -5.8239    0.4741 C   0  0  0  0  0  0  0  0  0  0  0  0
    5.4936   -3.4487    2.2252 N   0  0  0  0  0  0  0  0  0  0  0  0
    5.8095   -2.5342    3.1599 C   0  0  0  0  0  0  0  0  0  0  0  0
    4.7469   -2.0594    4.1640 C   0  0  0  0  0  0  0  0  0  0  0  0
    4.7143   -3.0519    5.3330 C   0  0  0  0  0  0  0  0  0  0  0  0
    3.7671   -2.5485    6.4238 C   0  0  0  0  0  0  0  0  0  0  0  0
    4.1365   -1.2165    6.8366 N   0  0  0  0  0  0  0  0  0  0  0  0
    4.5611   -0.9919    8.1050 C   0  0  0  0  0  0  0  0  0  0  0  0
    4.9404    0.3709    8.3943 C   0  0  0  0  0  0  0  0  0  0  0  0
    5.3012    1.4438    8.8033 C   0  0  0  0  0  0  0  0  0  0  0  0
    5.6312    2.7762    9.3021 C   0  0  0  0  0  0  0  0  0  0  0  0
    6.7446    3.3231    8.5193 N   0  0  0  0  0  0  0  0  0  0  0  0
    6.5697    3.2556    7.0853 C   0  0  0  0  0  0  0  0  0  0  0  0
    7.1815    4.6430    8.9166 C   0  0  0  0  0  0  0  0  0  0  0  0
    4.3358    3.6155    9.2436 C   0  0  0  0  0  0  0  0  0  0  0  0
    6.0652    2.5922   10.7665 C   0  0  0  0  0  0  0  0  0  0  0  0
    4.5978   -1.8593    8.9583 O   0  0  0  0  0  0  0  0  0  0  0  0
    4.1290   -0.2413    5.7766 C   0  0  0  0  0  0  0  0  0  0  0  0
    5.0957   -0.6562    4.6658 C   0  0  0  0  0  0  0  0  0  0  0  0
    6.9576   -2.1441    3.3263 O   0  0  0  0  0  0  0  0  0  0  0  0
    4.1499   -3.7453    1.7736 C   0  0  0  0  0  0  0  0  0  0  0  0
    5.9551   -3.5749   -0.9300 O   0  0  0  0  0  0  0  0  0  0  0  0
    6.8514    0.4640   -0.4299 C   0  0  0  0  0  0  0  0  0  0  0  0
    5.4287    0.9123   -0.0844 C   0  0  0  0  0  0  0  0  0  0  0  0
    4.5315    1.0226   -1.3292 C   0  0  0  0  0  0  0  0  0  0  0  0
    3.2112    1.4517   -0.9204 N   0  0  0  0  0  0  0  0  0  0  0  0
    2.6582    0.4879    0.0164 C   0  0  0  0  0  0  0  0  0  0  0  0
    3.5811    0.4053    1.2292 C   0  0  0  0  0  0  0  0  0  0  0  0
    4.8820    0.0101    0.8578 O   0  0  0  0  0  0  0  0  0  0  0  0
    9.2186   -0.7490   -1.6021 O   0  0  0  0  0  0  0  0  0  0  0  0
    8.7995   -1.8090   -4.1358 C   0  0  0  0  0  0  0  0  0  0  0  0
    8.3265   -0.7654   -5.1566 C   0  0  0  0  0  0  0  0  0  0  0  0
    6.8593   -0.9949   -5.5357 C   0  0  0  0  0  0  0  0  0  0  0  0
    3.8371   -1.8690   -3.6534 O   0  0  0  0  0  0  0  0  0  0  0  0
    1.6736    2.2875   -4.1988 C   0  0  0  0  0  0  0  0  0  0  0  0
    0.5478    3.0088   -3.7381 C   0  0  0  0  0  0  0  0  0  0  0  0
    0.3073    3.1800   -2.3800 C   0  0  0  0  0  0  0  0  0  0  0  0
    1.2015    2.6320   -1.4927 C   0  0  0  0  0  0  0  0  0  0  0  0
    2.3359    1.9164   -1.9218 C   0  0  0  0  0  0  0  0  0  0  0  0
    2.5748    1.7522   -3.2752 C   0  0  0  0  0  0  0  0  0  0  0  0
    3.4687   -1.9945    3.6148 F   0  0  0  0  0  0  0  0  0  0  0  0
    0.6957    7.2907   -7.7531 H   0  0  0  0  0  0  0  0  0  0  0  0
    2.4279    7.4009   -7.4112 H   0  0  0  0  0  0  0  0  0  0  0  0
    1.8645    6.7449   -8.9601 H   0  0  0  0  0  0  0  0  0  0  0  0
    1.4220    5.4533   -6.2239 H   0  0  0  0  0  0  0  0  0  0  0  0
    3.5118    4.7590   -5.5594 H   0  0  0  0  0  0  0  0  0  0  0  0
    4.6874    4.3519   -6.8379 H   0  0  0  0  0  0  0  0  0  0  0  0
    4.1571    6.0361   -6.6268 H   0  0  0  0  0  0  0  0  0  0  0  0
   -1.1661    4.6183  -10.7031 H   0  0  0  0  0  0  0  0  0  0  0  0
   -2.2582    2.6186   -9.6611 H   0  0  0  0  0  0  0  0  0  0  0  0
   -1.4610    1.8851   -7.4183 H   0  0  0  0  0  0  0  0  0  0  0  0
   -1.2578    4.9760   -3.9674 H   0  0  0  0  0  0  0  0  0  0  0  0
   -1.4416    4.7981   -5.7230 H   0  0  0  0  0  0  0  0  0  0  0  0
   -2.4785    2.8008   -3.6453 H   0  0  0  0  0  0  0  0  0  0  0  0
   -3.4703    4.0050   -4.4786 H   0  0  0  0  0  0  0  0  0  0  0  0
   -2.7199    2.6922   -5.3903 H   0  0  0  0  0  0  0  0  0  0  0  0
    2.5772    2.2725   -7.5043 H   0  0  0  0  0  0  0  0  0  0  0  0
    3.5987    1.7564   -6.1606 H   0  0  0  0  0  0  0  0  0  0  0  0
    0.2273    0.1945   -6.4440 H   0  0  0  0  0  0  0  0  0  0  0  0
    0.5819    0.6165   -8.1254 H   0  0  0  0  0  0  0  0  0  0  0  0
    0.7046   -1.0608   -7.5893 H   0  0  0  0  0  0  0  0  0  0  0  0
    4.2579    0.0053   -7.9104 H   0  0  0  0  0  0  0  0  0  0  0  0
    3.0814   -1.2176   -8.3912 H   0  0  0  0  0  0  0  0  0  0  0  0
    2.9394    0.4324   -9.0042 H   0  0  0  0  0  0  0  0  0  0  0  0
    2.1436   -0.3998   -4.8563 H   0  0  0  0  0  0  0  0  0  0  0  0
    2.4223   -1.7426   -5.9797 H   0  0  0  0  0  0  0  0  0  0  0  0
    6.1399   -0.1384   -3.6957 H   0  0  0  0  0  0  0  0  0  0  0  0
    6.0057   -2.6222   -2.7853 H   0  0  0  0  0  0  0  0  0  0  0  0
    5.9798   -1.2326   -1.4430 H   0  0  0  0  0  0  0  0  0  0  0  0
    7.4460   -1.6056    1.0247 H   0  0  0  0  0  0  0  0  0  0  0  0
    7.5122   -3.6449    1.9087 H   0  0  0  0  0  0  0  0  0  0  0  0
    5.7799   -5.7295    0.5113 H   0  0  0  0  0  0  0  0  0  0  0  0
    5.5190   -5.9700    2.9781 H   0  0  0  0  0  0  0  0  0  0  0  0
    6.5494   -7.2530    2.3473 H   0  0  0  0  0  0  0  0  0  0  0  0
    7.2687   -5.8737    3.1806 H   0  0  0  0  0  0  0  0  0  0  0  0
    7.9377   -6.8946    0.2876 H   0  0  0  0  0  0  0  0  0  0  0  0
    7.9927   -5.3077   -0.4787 H   0  0  0  0  0  0  0  0  0  0  0  0
    8.7655   -5.5583    1.0910 H   0  0  0  0  0  0  0  0  0  0  0  0
    4.3838   -4.0303    4.9809 H   0  0  0  0  0  0  0  0  0  0  0  0
    5.7268   -3.1451    5.7270 H   0  0  0  0  0  0  0  0  0  0  0  0
    2.7405   -2.5330    6.0387 H   0  0  0  0  0  0  0  0  0  0  0  0
    3.8149   -3.1955    7.3019 H   0  0  0  0  0  0  0  0  0  0  0  0
    6.2925    2.2438    6.7975 H   0  0  0  0  0  0  0  0  0  0  0  0
    5.8121    3.9576    6.7012 H   0  0  0  0  0  0  0  0  0  0  0  0
    7.5224    3.4974    6.6139 H   0  0  0  0  0  0  0  0  0  0  0  0
    7.3551    4.6785    9.9882 H   0  0  0  0  0  0  0  0  0  0  0  0
    8.1276    4.8489    8.4150 H   0  0  0  0  0  0  0  0  0  0  0  0
    6.4725    5.4393    8.6411 H   0  0  0  0  0  0  0  0  0  0  0  0
    3.5518    3.1154    9.8063 H   0  0  0  0  0  0  0  0  0  0  0  0
    4.5040    4.5979    9.6783 H   0  0  0  0  0  0  0  0  0  0  0  0
    3.9991    3.7333    8.2159 H   0  0  0  0  0  0  0  0  0  0  0  0
    5.3836    1.9062   11.2638 H   0  0  0  0  0  0  0  0  0  0  0  0
    7.0668    2.1721   10.7983 H   0  0  0  0  0  0  0  0  0  0  0  0
    6.0520    3.5366   11.3044 H   0  0  0  0  0  0  0  0  0  0  0  0
    3.1135   -0.1753    5.3651 H   0  0  0  0  0  0  0  0  0  0  0  0
    4.4081    0.7332    6.1802 H   0  0  0  0  0  0  0  0  0  0  0  0
    6.1217   -0.6715    5.0321 H   0  0  0  0  0  0  0  0  0  0  0  0
    5.0362    0.0431    3.8308 H   0  0  0  0  0  0  0  0  0  0  0  0
    3.5462   -4.1714    2.5749 H   0  0  0  0  0  0  0  0  0  0  0  0
    3.6582   -2.8474    1.3973 H   0  0  0  0  0  0  0  0  0  0  0  0
    4.2076   -4.4593    0.9580 H   0  0  0  0  0  0  0  0  0  0  0  0
    7.4842    0.5548    0.4539 H   0  0  0  0  0  0  0  0  0  0  0  0
    7.2525    1.1343   -1.1920 H   0  0  0  0  0  0  0  0  0  0  0  0
    5.4744    1.9164    0.3746 H   0  0  0  0  0  0  0  0  0  0  0  0
    4.9558    1.7714   -2.0019 H   0  0  0  0  0  0  0  0  0  0  0  0
    4.4848    0.0484   -1.8415 H   0  0  0  0  0  0  0  0  0  0  0  0
    1.6623    0.7985    0.3291 H   0  0  0  0  0  0  0  0  0  0  0  0
    2.5879   -0.5099   -0.4499 H   0  0  0  0  0  0  0  0  0  0  0  0
    3.6200    1.3908    1.7202 H   0  0  0  0  0  0  0  0  0  0  0  0
    3.2193   -0.3410    1.9361 H   0  0  0  0  0  0  0  0  0  0  0  0
    9.7842   -1.5564   -3.7431 H   0  0  0  0  0  0  0  0  0  0  0  0
    8.8171   -2.8032   -4.5866 H   0  0  0  0  0  0  0  0  0  0  0  0
    8.4353    0.2287   -4.7158 H   0  0  0  0  0  0  0  0  0  0  0  0
    8.9556   -0.8134   -6.0455 H   0  0  0  0  0  0  0  0  0  0  0  0
    6.7598   -1.9331   -6.0823 H   0  0  0  0  0  0  0  0  0  0  0  0
    6.4956   -0.1812   -6.1626 H   0  0  0  0  0  0  0  0  0  0  0  0
   -0.5466    3.7363   -2.0233 H   0  0  0  0  0  0  0  0  0  0  0  0
    1.0498    2.7717   -0.4334 H   0  0  0  0  0  0  0  0  0  0  0  0
    3.4457    1.2240   -3.6284 H   0  0  0  0  0  0  0  0  0  0  0  0
  1  2  1  0  0  0  0
  2  3  1  0  0  0  0
  3  4  1  0  0  0  0
  2  5  1  0  0  0  0
  5  6  4  0  0  0  0
  6  7  4  0  0  0  0
  7  8  4  0  0  0  0
  8  9  4  0  0  0  0
  5 10  4  0  0  0  0
  9 10  4  0  0  0  0
 10 11  1  0  0  0  0
 11 12  1  0  0  0  0
 12 13  1  0  0  0  0
 13 14  1  0  0  0  0
 11 15  2  0  0  0  0
 15 16  1  0  0  0  0
 16 17  1  0  0  0  0
 17 18  1  0  0  0  0
 17 19  1  0  0  0  0
 17 20  1  0  0  0  0
 20 21  1  0  0  0  0
 21 22  1  0  0  0  0
 22 23  1  0  0  0  0
 23 24  1  0  0  0  0
 24 25  1  0  0  0  0
 25 26  4  0  0  0  0
 26 27  1  0  0  0  0
 27 28  1  0  0  0  0
 28 29  4  0  0  0  0
 29 30  1  0  0  0  0
 30 31  1  0  0  0  0
 31 32  1  0  0  0  0
 31 33  1  0  0  0  0
 30 34  1  0  0  0  0
 34 35  4  0  0  0  0
 35 36  1  0  0  0  0
 36 37  1  0  0  0  0
 37 38  1  0  0  0  0
 38 39  1  0  0  0  0
 39 40  4  0  0  0  0
 40 41  1  0  0  0  0
 41 42  3  0  0  0  0
 42 43  1  0  0  0  0
 43 44  1  0  0  0  0
 44 45  1  0  0  0  0
 44 46  1  0  0  0  0
 43 47  1  0  0  0  0
 43 48  1  0  0  0  0
 40 49  2  0  0  0  0
 39 50  1  0  0  0  0
 36 51  1  0  0  0  0
 50 51  1  0  0  0  0
 35 52  2  0  0  0  0
 34 53  1  0  0  0  0
 29 54  2  0  0  0  0
 27 55  1  0  0  0  0
 55 56  1  0  0  0  0
 56 57  1  0  0  0  0
 57 58  1  0  0  0  0
 58 59  1  0  0  0  0
 59 60  1  0  0  0  0
 56 61  1  0  0  0  0
 60 61  1  0  0  0  0
 26 62  2  0  0  0  0
 25 63  1  0  0  0  0
 63 64  1  0  0  0  0
 23 65  1  0  0  0  0
 64 65  1  0  0  0  0
 22 66  2  0  0  0  0
 15 67  4  0  0  0  0
 12 68  1  0  0  0  0
 67 68  4  0  0  0  0
 68 69  4  0  0  0  0
 69 70  2  0  0  0  0
 58 71  1  0  0  0  0
 70 71  4  0  0  0  0
 67 72  4  0  0  0  0
 71 72  4  0  0  0  0
 36 73  1  0  0  0  0
  1 74  1  0  0  0  0
  1 75  1  0  0  0  0
  1 76  1  0  0  0  0
  2 77  1  0  0  0  0
  4 78  1  0  0  0  0
  4 79  1  0  0  0  0
  4 80  1  0  0  0  0
  7 81  1  0  0  0  0
  8 82  1  0  0  0  0
  9 83  1  0  0  0  0
 13 84  1  0  0  0  0
 13 85  1  0  0  0  0
 14 86  1  0  0  0  0
 14 87  1  0  0  0  0
 14 88  1  0  0  0  0
 16 89  1  0  0  0  0
 16 90  1  0  0  0  0
 18 91  1  0  0  0  0
 18 92  1  0  0  0  0
 18 93  1  0  0  0  0
 19 94  1  0  0  0  0
 19 95  1  0  0  0  0
 19 96  1  0  0  0  0
 20 97  1  0  0  0  0
 20 98  1  0  0  0  0
 23 99  1  0  0  0  0
 24100  1  0  0  0  0
 27101  1  0  0  0  0
 28102  1  0  0  0  0
 30103  1  0  0  0  0
 31104  1  0  0  0  0
 32105  1  0  0  0  0
 32106  1  0  0  0  0
 32107  1  0  0  0  0
 33108  1  0  0  0  0
 33109  1  0  0  0  0
 33110  1  0  0  0  0
 37111  1  0  0  0  0
 37112  1  0  0  0  0
 38113  1  0  0  0  0
 38114  1  0  0  0  0
 45115  1  0  0  0  0
 45116  1  0  0  0  0
 45117  1  0  0  0  0
 46118  1  0  0  0  0
 46119  1  0  0  0  0
 46120  1  0  0  0  0
 47121  1  0  0  0  0
 47122  1  0  0  0  0
 47123  1  0  0  0  0
 48124  1  0  0  0  0
 48125  1  0  0  0  0
 48126  1  0  0  0  0
 50127  1  0  0  0  0
 50128  1  0  0  0  0
 51129  1  0  0  0  0
 51130  1  0  0  0  0
 53131  1  0  0  0  0
 53132  1  0  0  0  0
 53133  1  0  0  0  0
 55134  1  0  0  0  0
 55135  1  0  0  0  0
 56136  1  0  0  0  0
 57137  1  0  0  0  0
 57138  1  0  0  0  0
 59139  1  0  0  0  0
 59140  1  0  0  0  0
 60141  1  0  0  0  0
 60142  1  0  0  0  0
 63143  1  0  0  0  0
 63144  1  0  0  0  0
 64145  1  0  0  0  0
 64146  1  0  0  0  0
 65147  1  0  0  0  0
 65148  1  0  0  0  0
 69149  1  0  0  0  0
 70150  1  0  0  0  0
 72151  1  0  0  0  0
M  END
$$$$
