 xtb: 6.7.1 (edcfbbe)
          08232520463D

151157  0     0  0            999 V2000
    4.6705   -0.2233    6.2518 C   0  0  0  0  0  0  0  0  0  0  0  0
    4.1295   -1.4276    5.4687 C   0  0  0  0  0  0  0  0  0  0  0  0
    4.0948   -1.2044    4.0739 O   0  0  0  0  0  0  0  0  0  0  0  0
    5.3218   -1.4052    3.4228 C   0  0  0  0  0  0  0  0  0  0  0  0
    2.7537   -1.7837    5.9871 C   0  0  0  0  0  0  0  0  0  0  0  0
    2.7815   -2.7616    6.8846 N   0  0  0  0  0  0  0  0  0  0  0  0
    1.6711   -3.1305    7.4926 C   0  0  0  0  0  0  0  0  0  0  0  0
    0.4469   -2.5307    7.2463 C   0  0  0  0  0  0  0  0  0  0  0  0
    0.4078   -1.5203    6.3047 C   0  0  0  0  0  0  0  0  0  0  0  0
    1.5692   -1.1263    5.6370 C   0  0  0  0  0  0  0  0  0  0  0  0
    1.4457   -0.0474    4.6438 C   0  0  0  0  0  0  0  0  0  0  0  0
    1.2627    1.2502    5.0741 N   0  0  0  0  0  0  0  0  0  0  0  0
    1.3337    1.7370    6.4286 C   0  0  0  0  0  0  0  0  0  0  0  0
   -0.0499    2.0224    7.0119 C   0  0  0  0  0  0  0  0  0  0  0  0
    1.3340   -0.1140    3.2733 C   0  0  0  0  0  0  0  0  0  0  0  0
    1.5285   -1.2942    2.3731 C   0  0  0  0  0  0  0  0  0  0  0  0
    0.2669   -2.1049    2.0002 C   0  0  0  0  0  0  0  0  0  0  0  0
   -0.4615   -2.5646    3.2636 C   0  0  0  0  0  0  0  0  0  0  0  0
    0.7010   -3.3308    1.1928 C   0  0  0  0  0  0  0  0  0  0  0  0
   -0.7357   -1.2643    1.1849 C   0  0  0  0  0  0  0  0  0  0  0  0
   -0.4362   -1.1556   -0.2141 O   0  0  0  0  0  0  0  0  0  0  0  0
   -1.1177   -1.9498   -1.0363 C   0  0  0  0  0  0  0  0  0  0  0  0
   -0.8559   -1.6094   -2.4997 C   0  0  0  0  0  0  0  0  0  0  0  0
    0.5585   -1.5471   -2.8385 N   0  0  0  0  0  0  0  0  0  0  0  0
    0.7070   -0.9950   -4.1170 N   0  0  0  0  0  0  0  0  0  0  0  0
    0.7853    0.3227   -4.4117 C   0  0  0  0  0  0  0  0  0  0  0  0
    0.9088    1.2753   -3.2074 C   0  0  0  0  0  0  0  0  0  0  0  0
    2.2915    1.6829   -3.0496 N   0  0  0  0  0  0  0  0  0  0  0  0
    3.1377    0.9861   -2.2784 C   0  0  0  0  0  0  0  0  0  0  0  0
    4.5381    1.5887   -2.1529 C   0  0  0  0  0  0  0  0  0  0  0  0
    5.5348    0.8944   -3.0994 C   0  0  0  0  0  0  0  0  0  0  0  0
    6.8965    1.5801   -3.0077 C   0  0  0  0  0  0  0  0  0  0  0  0
    5.0187    0.9441   -4.5363 C   0  0  0  0  0  0  0  0  0  0  0  0
    4.9618    1.5435   -0.7555 N   0  0  0  0  0  0  0  0  0  0  0  0
    4.9161    2.7004   -0.0754 C   0  0  0  0  0  0  0  0  0  0  0  0
    5.3771    2.7541    1.3928 C   0  0  0  0  0  0  0  0  0  0  0  0
    4.2421    2.3314    2.3311 C   0  0  0  0  0  0  0  0  0  0  0  0
    4.6402    2.5409    3.7926 C   0  0  0  0  0  0  0  0  0  0  0  0
    5.0165    3.9154    4.0084 N   0  0  0  0  0  0  0  0  0  0  0  0
    4.2343    4.7323    4.7538 C   0  0  0  0  0  0  0  0  0  0  0  0
    4.5383    6.1361    4.6295 C   0  0  0  0  0  0  0  0  0  0  0  0
    4.6324    7.3259    4.4701 C   0  0  0  0  0  0  0  0  0  0  0  0
    4.7942    8.7734    4.3354 C   0  0  0  0  0  0  0  0  0  0  0  0
    4.6610    9.4607    5.6287 N   0  0  0  0  0  0  0  0  0  0  0  0
    3.3427    9.3219    6.2226 C   0  0  0  0  0  0  0  0  0  0  0  0
    5.6843    9.0874    6.5881 C   0  0  0  0  0  0  0  0  0  0  0  0
    6.1764    9.0619    3.7251 C   0  0  0  0  0  0  0  0  0  0  0  0
    3.7226    9.2809    3.3552 C   0  0  0  0  0  0  0  0  0  0  0  0
    3.3341    4.3251    5.4700 O   0  0  0  0  0  0  0  0  0  0  0  0
    6.1309    4.3419    3.2010 C   0  0  0  0  0  0  0  0  0  0  0  0
    5.8143    4.1876    1.7145 C   0  0  0  0  0  0  0  0  0  0  0  0
    4.4958    3.7328   -0.5825 O   0  0  0  0  0  0  0  0  0  0  0  0
    5.3239    0.2525   -0.2128 C   0  0  0  0  0  0  0  0  0  0  0  0
    2.8044   -0.0463   -1.7147 O   0  0  0  0  0  0  0  0  0  0  0  0
    0.0036    2.4925   -3.3903 C   0  0  0  0  0  0  0  0  0  0  0  0
    0.0873    3.5016   -2.2330 C   0  0  0  0  0  0  0  0  0  0  0  0
    0.3697    2.8192   -0.8934 C   0  0  0  0  0  0  0  0  0  0  0  0
    0.4915    3.7712    0.1936 N   0  0  0  0  0  0  0  0  0  0  0  0
    1.4840    4.7886   -0.1444 C   0  0  0  0  0  0  0  0  0  0  0  0
    1.1583    5.4118   -1.5001 C   0  0  0  0  0  0  0  0  0  0  0  0
    1.1047    4.4416   -2.5212 O   0  0  0  0  0  0  0  0  0  0  0  0
    0.8278    0.7345   -5.5563 O   0  0  0  0  0  0  0  0  0  0  0  0
    0.2613   -1.9450   -5.1197 C   0  0  0  0  0  0  0  0  0  0  0  0
   -1.2287   -2.2250   -4.8964 C   0  0  0  0  0  0  0  0  0  0  0  0
   -1.4784   -2.6419   -3.4460 C   0  0  0  0  0  0  0  0  0  0  0  0
   -1.9203   -2.7751   -0.6880 O   0  0  0  0  0  0  0  0  0  0  0  0
    1.0866    1.2214    2.8354 C   0  0  0  0  0  0  0  0  0  0  0  0
    1.0503    2.0437    3.9812 C   0  0  0  0  0  0  0  0  0  0  0  0
    0.8397    3.4143    3.8677 C   0  0  0  0  0  0  0  0  0  0  0  0
    0.6657    3.9416    2.6088 C   0  0  0  0  0  0  0  0  0  0  0  0
    0.7077    3.1445    1.4482 C   0  0  0  0  0  0  0  0  0  0  0  0
    0.9232    1.7816    1.5686 C   0  0  0  0  0  0  0  0  0  0  0  0
    6.4821    1.9250    1.5932 F   0  0  0  0  0  0  0  0  0  0  0  0
    4.6394   -0.4432    7.3155 H   0  0  0  0  0  0  0  0  0  0  0  0
    5.7006   -0.0203    5.9692 H   0  0  0  0  0  0  0  0  0  0  0  0
    4.0682    0.6570    6.0477 H   0  0  0  0  0  0  0  0  0  0  0  0
    4.7712   -2.2971    5.6849 H   0  0  0  0  0  0  0  0  0  0  0  0
    5.7948   -2.3412    3.7440 H   0  0  0  0  0  0  0  0  0  0  0  0
    5.0982   -1.4708    2.3590 H   0  0  0  0  0  0  0  0  0  0  0  0
    6.0240   -0.5811    3.5937 H   0  0  0  0  0  0  0  0  0  0  0  0
    1.7762   -3.9359    8.2074 H   0  0  0  0  0  0  0  0  0  0  0  0
   -0.4436   -2.8453    7.7674 H   0  0  0  0  0  0  0  0  0  0  0  0
   -0.5262   -1.0292    6.0713 H   0  0  0  0  0  0  0  0  0  0  0  0
    1.8444    0.9897    7.0422 H   0  0  0  0  0  0  0  0  0  0  0  0
    1.9252    2.6586    6.4276 H   0  0  0  0  0  0  0  0  0  0  0  0
    0.0524    2.4610    8.0008 H   0  0  0  0  0  0  0  0  0  0  0  0
   -0.5906    2.7180    6.3755 H   0  0  0  0  0  0  0  0  0  0  0  0
   -0.6311    1.1074    7.0977 H   0  0  0  0  0  0  0  0  0  0  0  0
    1.9847   -0.9421    1.4445 H   0  0  0  0  0  0  0  0  0  0  0  0
    2.2306   -1.9750    2.8557 H   0  0  0  0  0  0  0  0  0  0  0  0
   -0.8833   -1.7105    3.7865 H   0  0  0  0  0  0  0  0  0  0  0  0
   -1.2681   -3.2492    3.0103 H   0  0  0  0  0  0  0  0  0  0  0  0
    0.2284   -3.0752    3.9304 H   0  0  0  0  0  0  0  0  0  0  0  0
    1.3209   -3.9791    1.8074 H   0  0  0  0  0  0  0  0  0  0  0  0
   -0.1672   -3.8958    0.8606 H   0  0  0  0  0  0  0  0  0  0  0  0
    1.2761   -3.0333    0.3180 H   0  0  0  0  0  0  0  0  0  0  0  0
   -1.7304   -1.7137    1.2695 H   0  0  0  0  0  0  0  0  0  0  0  0
   -0.7624   -0.2412    1.5649 H   0  0  0  0  0  0  0  0  0  0  0  0
   -1.3537   -0.6301   -2.6586 H   0  0  0  0  0  0  0  0  0  0  0  0
    1.1652   -1.0987   -2.1541 H   0  0  0  0  0  0  0  0  0  0  0  0
    0.6188    0.7437   -2.2979 H   0  0  0  0  0  0  0  0  0  0  0  0
    2.5473    2.5727   -3.4499 H   0  0  0  0  0  0  0  0  0  0  0  0
    4.4872    2.6509   -2.4151 H   0  0  0  0  0  0  0  0  0  0  0  0
    5.6341   -0.1542   -2.8050 H   0  0  0  0  0  0  0  0  0  0  0  0
    7.2725    1.5829   -1.9879 H   0  0  0  0  0  0  0  0  0  0  0  0
    7.6182    1.0662   -3.6379 H   0  0  0  0  0  0  0  0  0  0  0  0
    6.8199    2.6123   -3.3433 H   0  0  0  0  0  0  0  0  0  0  0  0
    4.0803    0.4051   -4.6415 H   0  0  0  0  0  0  0  0  0  0  0  0
    4.8650    1.9729   -4.8548 H   0  0  0  0  0  0  0  0  0  0  0  0
    5.7463    0.4880   -5.2032 H   0  0  0  0  0  0  0  0  0  0  0  0
    3.3692    2.9441    2.1000 H   0  0  0  0  0  0  0  0  0  0  0  0
    3.9688    1.2863    2.1887 H   0  0  0  0  0  0  0  0  0  0  0  0
    3.7928    2.3114    4.4383 H   0  0  0  0  0  0  0  0  0  0  0  0
    5.4831    1.8899    4.0465 H   0  0  0  0  0  0  0  0  0  0  0  0
    3.3459    9.8324    7.1844 H   0  0  0  0  0  0  0  0  0  0  0  0
    2.5970    9.8035    5.5951 H   0  0  0  0  0  0  0  0  0  0  0  0
    3.0541    8.2738    6.3857 H   0  0  0  0  0  0  0  0  0  0  0  0
    5.5092    9.6438    7.5077 H   0  0  0  0  0  0  0  0  0  0  0  0
    5.6797    8.0133    6.8257 H   0  0  0  0  0  0  0  0  0  0  0  0
    6.6673    9.3650    6.2162 H   0  0  0  0  0  0  0  0  0  0  0  0
    6.9656    8.5284    4.2482 H   0  0  0  0  0  0  0  0  0  0  0  0
    6.1916    8.7442    2.6852 H   0  0  0  0  0  0  0  0  0  0  0  0
    6.3728   10.1297    3.7717 H   0  0  0  0  0  0  0  0  0  0  0  0
    2.7351    8.9126    3.6184 H   0  0  0  0  0  0  0  0  0  0  0  0
    3.7172   10.3676    3.3618 H   0  0  0  0  0  0  0  0  0  0  0  0
    3.9504    8.9328    2.3506 H   0  0  0  0  0  0  0  0  0  0  0  0
    6.3704    5.3817    3.4280 H   0  0  0  0  0  0  0  0  0  0  0  0
    6.9960    3.7154    3.4528 H   0  0  0  0  0  0  0  0  0  0  0  0
    6.6953    4.4331    1.1195 H   0  0  0  0  0  0  0  0  0  0  0  0
    5.0063    4.8596    1.4262 H   0  0  0  0  0  0  0  0  0  0  0  0
    5.1427    0.2186    0.8554 H   0  0  0  0  0  0  0  0  0  0  0  0
    4.7003   -0.5033   -0.6863 H   0  0  0  0  0  0  0  0  0  0  0  0
    6.3780    0.0297   -0.3936 H   0  0  0  0  0  0  0  0  0  0  0  0
    0.2754    3.0040   -4.3154 H   0  0  0  0  0  0  0  0  0  0  0  0
   -1.0249    2.1418   -3.4887 H   0  0  0  0  0  0  0  0  0  0  0  0
   -0.8714    4.0442   -2.1591 H   0  0  0  0  0  0  0  0  0  0  0  0
   -0.4497    2.1348   -0.6599 H   0  0  0  0  0  0  0  0  0  0  0  0
    1.3115    2.2634   -0.9864 H   0  0  0  0  0  0  0  0  0  0  0  0
    1.4811    5.5664    0.6193 H   0  0  0  0  0  0  0  0  0  0  0  0
    2.4929    4.3529   -0.2050 H   0  0  0  0  0  0  0  0  0  0  0  0
    0.1937    5.9400   -1.4463 H   0  0  0  0  0  0  0  0  0  0  0  0
    1.9439    6.1125   -1.7861 H   0  0  0  0  0  0  0  0  0  0  0  0
    0.4413   -1.5113   -6.1032 H   0  0  0  0  0  0  0  0  0  0  0  0
    0.8456   -2.8589   -4.9969 H   0  0  0  0  0  0  0  0  0  0  0  0
   -1.7932   -1.3164   -5.1200 H   0  0  0  0  0  0  0  0  0  0  0  0
   -1.5621   -3.0088   -5.5760 H   0  0  0  0  0  0  0  0  0  0  0  0
   -1.0083   -3.6057   -3.2489 H   0  0  0  0  0  0  0  0  0  0  0  0
   -2.5454   -2.7343   -3.2462 H   0  0  0  0  0  0  0  0  0  0  0  0
    0.8280    4.0553    4.7344 H   0  0  0  0  0  0  0  0  0  0  0  0
    0.4813    4.9997    2.5032 H   0  0  0  0  0  0  0  0  0  0  0  0
    0.9923    1.1269    0.7171 H   0  0  0  0  0  0  0  0  0  0  0  0
  1  2  1  0  0  0  0
  2  3  1  0  0  0  0
  3  4  1  0  0  0  0
  2  5  1  0  0  0  0
  5  6  4  0  0  0  0
  6  7  4  0  0  0  0
  7  8  4  0  0  0  0
  8  9  4  0  0  0  0
  5 10  4  0  0  0  0
  9 10  4  0  0  0  0
 10 11  1  0  0  0  0
 11 12  1  0  0  0  0
 12 13  1  0  0  0  0
 13 14  1  0  0  0  0
 11 15  2  0  0  0  0
 15 16  1  0  0  0  0
 16 17  1  0  0  0  0
 17 18  1  0  0  0  0
 17 19  1  0  0  0  0
 17 20  1  0  0  0  0
 20 21  1  0  0  0  0
 21 22  1  0  0  0  0
 22 23  1  0  0  0  0
 23 24  1  0  0  0  0
 24 25  1  0  0  0  0
 25 26  4  0  0  0  0
 26 27  1  0  0  0  0
 27 28  1  0  0  0  0
 28 29  4  0  0  0  0
 29 30  1  0  0  0  0
 30 31  1  0  0  0  0
 31 32  1  0  0  0  0
 31 33  1  0  0  0  0
 30 34  1  0  0  0  0
 34 35  4  0  0  0  0
 35 36  1  0  0  0  0
 36 37  1  0  0  0  0
 37 38  1  0  0  0  0
 38 39  1  0  0  0  0
 39 40  4  0  0  0  0
 40 41  1  0  0  0  0
 41 42  3  0  0  0  0
 42 43  1  0  0  0  0
 43 44  1  0  0  0  0
 44 45  1  0  0  0  0
 44 46  1  0  0  0  0
 43 47  1  0  0  0  0
 43 48  1  0  0  0  0
 40 49  2  0  0  0  0
 39 50  1  0  0  0  0
 36 51  1  0  0  0  0
 50 51  1  0  0  0  0
 35 52  2  0  0  0  0
 34 53  1  0  0  0  0
 29 54  2  0  0  0  0
 27 55  1  0  0  0  0
 55 56  1  0  0  0  0
 56 57  1  0  0  0  0
 57 58  1  0  0  0  0
 58 59  1  0  0  0  0
 59 60  1  0  0  0  0
 56 61  1  0  0  0  0
 60 61  1  0  0  0  0
 26 62  2  0  0  0  0
 25 63  1  0  0  0  0
 63 64  1  0  0  0  0
 23 65  1  0  0  0  0
 64 65  1  0  0  0  0
 22 66  2  0  0  0  0
 15 67  4  0  0  0  0
 12 68  1  0  0  0  0
 67 68  4  0  0  0  0
 68 69  4  0  0  0  0
 69 70  2  0  0  0  0
 58 71  1  0  0  0  0
 70 71  4  0  0  0  0
 67 72  4  0  0  0  0
 71 72  4  0  0  0  0
 36 73  1  0  0  0  0
  1 74  1  0  0  0  0
  1 75  1  0  0  0  0
  1 76  1  0  0  0  0
  2 77  1  0  0  0  0
  4 78  1  0  0  0  0
  4 79  1  0  0  0  0
  4 80  1  0  0  0  0
  7 81  1  0  0  0  0
  8 82  1  0  0  0  0
  9 83  1  0  0  0  0
 13 84  1  0  0  0  0
 13 85  1  0  0  0  0
 14 86  1  0  0  0  0
 14 87  1  0  0  0  0
 14 88  1  0  0  0  0
 16 89  1  0  0  0  0
 16 90  1  0  0  0  0
 18 91  1  0  0  0  0
 18 92  1  0  0  0  0
 18 93  1  0  0  0  0
 19 94  1  0  0  0  0
 19 95  1  0  0  0  0
 19 96  1  0  0  0  0
 20 97  1  0  0  0  0
 20 98  1  0  0  0  0
 23 99  1  0  0  0  0
 24100  1  0  0  0  0
 27101  1  0  0  0  0
 28102  1  0  0  0  0
 30103  1  0  0  0  0
 31104  1  0  0  0  0
 32105  1  0  0  0  0
 32106  1  0  0  0  0
 32107  1  0  0  0  0
 33108  1  0  0  0  0
 33109  1  0  0  0  0
 33110  1  0  0  0  0
 37111  1  0  0  0  0
 37112  1  0  0  0  0
 38113  1  0  0  0  0
 38114  1  0  0  0  0
 45115  1  0  0  0  0
 45116  1  0  0  0  0
 45117  1  0  0  0  0
 46118  1  0  0  0  0
 46119  1  0  0  0  0
 46120  1  0  0  0  0
 47121  1  0  0  0  0
 47122  1  0  0  0  0
 47123  1  0  0  0  0
 48124  1  0  0  0  0
 48125  1  0  0  0  0
 48126  1  0  0  0  0
 50127  1  0  0  0  0
 50128  1  0  0  0  0
 51129  1  0  0  0  0
 51130  1  0  0  0  0
 53131  1  0  0  0  0
 53132  1  0  0  0  0
 53133  1  0  0  0  0
 55134  1  0  0  0  0
 55135  1  0  0  0  0
 56136  1  0  0  0  0
 57137  1  0  0  0  0
 57138  1  0  0  0  0
 59139  1  0  0  0  0
 59140  1  0  0  0  0
 60141  1  0  0  0  0
 60142  1  0  0  0  0
 63143  1  0  0  0  0
 63144  1  0  0  0  0
 64145  1  0  0  0  0
 64146  1  0  0  0  0
 65147  1  0  0  0  0
 65148  1  0  0  0  0
 69149  1  0  0  0  0
 70150  1  0  0  0  0
 72151  1  0  0  0  0
M  END
$$$$
