mol_ETKDG4_24
     RDKit          3D

151157  0  0  0  0  0  0  0  0999 V2000
    5.0096    8.3734   -7.5260 C   0  0  0  0  0  0  0  0  0  0  0  0
    4.4099    6.9906   -7.2598 C   0  0  2  0  0  0  0  0  0  0  0  0
    5.4081    5.9876   -7.5003 O   0  0  0  0  0  0  0  0  0  0  0  0
    6.2411    5.7491   -6.3741 C   0  0  0  0  0  0  0  0  0  0  0  0
    3.1920    6.7011   -8.1408 C   0  0  0  0  0  0  0  0  0  0  0  0
    3.1166    7.3634   -9.3322 N   0  0  0  0  0  0  0  0  0  0  0  0
    2.0612    7.1138  -10.1348 C   0  0  0  0  0  0  0  0  0  0  0  0
    1.0443    6.2355   -9.8140 C   0  0  0  0  0  0  0  0  0  0  0  0
    1.1180    5.5646   -8.5990 C   0  0  0  0  0  0  0  0  0  0  0  0
    2.2018    5.7829   -7.7406 C   0  0  0  0  0  0  0  0  0  0  0  0
    2.2577    5.0730   -6.4580 C   0  0  0  0  0  0  0  0  0  0  0  0
    1.6182    5.5156   -5.3165 N   0  0  0  0  0  0  0  0  0  0  0  0
    0.7220    6.6636   -5.2331 C   0  0  0  0  0  0  0  0  0  0  0  0
   -0.7409    6.2653   -5.3344 C   0  0  0  0  0  0  0  0  0  0  0  0
    2.9855    3.9330   -6.1172 C   0  0  0  0  0  0  0  0  0  0  0  0
    3.7994    3.0898   -7.0712 C   0  0  0  0  0  0  0  0  0  0  0  0
    3.1402    1.7736   -7.5846 C   0  0  0  0  0  0  0  0  0  0  0  0
    1.6995    1.9925   -8.0793 C   0  0  0  0  0  0  0  0  0  0  0  0
    3.9781    1.2754   -8.7856 C   0  0  0  0  0  0  0  0  0  0  0  0
    3.1286    0.6764   -6.4971 C   0  0  0  0  0  0  0  0  0  0  0  0
    4.4783    0.3834   -6.1049 O   0  0  0  0  0  0  0  0  0  0  0  0
    4.6069   -0.5126   -5.0871 C   0  0  0  0  0  0  0  0  0  0  0  0
    6.0866   -0.6685   -4.7181 C   0  0  1  0  0  0  0  0  0  0  0  0
    6.2251   -1.6938   -3.6689 N   0  0  0  0  0  0  0  0  0  0  0  0
    7.5630   -1.7928   -3.2272 N   0  0  0  0  0  0  0  0  0  0  0  0
    7.9753   -1.7444   -1.8871 C   0  0  0  0  0  0  0  0  0  0  0  0
    6.9770   -1.1752   -0.8411 C   0  0  1  0  0  0  0  0  0  0  0  0
    7.2332   -1.7639    0.4752 N   0  0  0  0  0  0  0  0  0  0  0  0
    6.9709   -3.1062    0.6771 C   0  0  0  0  0  0  0  0  0  0  0  0
    7.1404   -3.5583    2.1435 C   0  0  2  0  0  0  0  0  0  0  0  0
    7.6507   -5.0201    2.2368 C   0  0  0  0  0  0  0  0  0  0  0  0
    7.6992   -5.5053    3.6911 C   0  0  0  0  0  0  0  0  0  0  0  0
    9.0541   -5.1500    1.6276 C   0  0  0  0  0  0  0  0  0  0  0  0
    5.8554   -3.3308    2.8569 N   0  0  0  0  0  0  0  0  0  0  0  0
    5.7258   -2.1264    3.5615 C   0  0  0  0  0  0  0  0  0  0  0  0
    4.4800   -1.9236    4.4582 C   0  0  0  0  0  0  0  0  0  0  0  0
    4.4573   -2.9795    5.5784 C   0  0  0  0  0  0  0  0  0  0  0  0
    3.2894   -2.7303    6.5282 C   0  0  0  0  0  0  0  0  0  0  0  0
    3.3802   -1.3803    7.0565 N   0  0  0  0  0  0  0  0  0  0  0  0
    3.7970   -1.2050    8.3716 C   0  0  0  0  0  0  0  0  0  0  0  0
    4.1689    0.1212    8.8024 C   0  0  0  0  0  0  0  0  0  0  0  0
    4.5379    1.2224    9.1195 C   0  0  0  0  0  0  0  0  0  0  0  0
    5.0593    2.5690    9.4680 C   0  0  0  0  0  0  0  0  0  0  0  0
    6.5356    2.5606    9.2920 N   0  0  0  0  0  0  0  0  0  0  0  0
    6.9815    2.3446    7.9129 C   0  0  0  0  0  0  0  0  0  0  0  0
    7.2296    3.7168    9.8576 C   0  0  0  0  0  0  0  0  0  0  0  0
    4.6638    2.8298   10.9408 C   0  0  0  0  0  0  0  0  0  0  0  0
    4.3377    3.6103    8.5842 C   0  0  0  0  0  0  0  0  0  0  0  0
    3.8951   -2.1186    9.1816 O   0  0  0  0  0  0  0  0  0  0  0  0
    3.3360   -0.3287    6.0471 C   0  0  0  0  0  0  0  0  0  0  0  0
    4.4841   -0.5038    5.0588 C   0  0  0  0  0  0  0  0  0  0  0  0
    6.6168   -1.2716    3.5128 O   0  0  0  0  0  0  0  0  0  0  0  0
    4.6811   -4.0491    2.3550 C   0  0  0  0  0  0  0  0  0  0  0  0
    6.5573   -3.8481   -0.2129 O   0  0  0  0  0  0  0  0  0  0  0  0
    7.1793    0.3515   -0.7914 C   0  0  0  0  0  0  0  0  0  0  0  0
    5.9141    1.1554   -0.4536 C   0  0  1  0  0  0  0  0  0  0  0  0
    5.1572    1.5720   -1.7388 C   0  0  0  0  0  0  0  0  0  0  0  0
    3.9435    2.3250   -1.3743 N   0  0  0  0  0  0  0  0  0  0  0  0
    3.0779    1.5540   -0.4544 C   0  0  0  0  0  0  0  0  0  0  0  0
    3.8919    1.1362    0.7825 C   0  0  0  0  0  0  0  0  0  0  0  0
    5.0728    0.3957    0.4326 O   0  0  0  0  0  0  0  0  0  0  0  0
    9.1344   -2.0284   -1.5611 O   0  0  0  0  0  0  0  0  0  0  0  0
    8.4844   -2.2616   -4.2677 C   0  0  0  0  0  0  0  0  0  0  0  0
    8.3977   -1.3467   -5.4935 C   0  0  0  0  0  0  0  0  0  0  0  0
    6.9446   -1.0971   -5.9175 C   0  0  0  0  0  0  0  0  0  0  0  0
    3.6726   -1.0349   -4.4933 O   0  0  0  0  0  0  0  0  0  0  0  0
    2.9118    3.8057   -4.6877 C   0  0  0  0  0  0  0  0  0  0  0  0
    2.0230    4.7727   -4.2249 C   0  0  0  0  0  0  0  0  0  0  0  0
    1.7049    4.8930   -2.8667 C   0  0  0  0  0  0  0  0  0  0  0  0
    2.3465    4.0401   -1.9603 C   0  0  0  0  0  0  0  0  0  0  0  0
    3.2812    3.0749   -2.3541 C   0  0  0  0  0  0  0  0  0  0  0  0
    3.5479    2.9710   -3.7325 C   0  0  0  0  0  0  0  0  0  0  0  0
    3.3210   -2.0377    3.7311 F   0  0  0  0  0  0  0  0  0  0  0  0
    5.8165    8.5896   -6.8180 H   0  0  0  0  0  0  0  0  0  0  0  0
    5.4512    8.4325   -8.5266 H   0  0  0  0  0  0  0  0  0  0  0  0
    4.2556    9.1631   -7.4278 H   0  0  0  0  0  0  0  0  0  0  0  0
    4.0940    6.9693   -6.2098 H   0  0  0  0  0  0  0  0  0  0  0  0
    5.6485    5.4358   -5.5097 H   0  0  0  0  0  0  0  0  0  0  0  0
    6.9329    4.9404   -6.6265 H   0  0  0  0  0  0  0  0  0  0  0  0
    6.8279    6.6377   -6.1250 H   0  0  0  0  0  0  0  0  0  0  0  0
    2.0540    7.6604  -11.0735 H   0  0  0  0  0  0  0  0  0  0  0  0
    0.2169    6.0725  -10.4956 H   0  0  0  0  0  0  0  0  0  0  0  0
    0.3333    4.8626   -8.3264 H   0  0  0  0  0  0  0  0  0  0  0  0
    0.9173    7.1739   -4.2835 H   0  0  0  0  0  0  0  0  0  0  0  0
    0.9835    7.3754   -6.0208 H   0  0  0  0  0  0  0  0  0  0  0  0
   -1.0082    5.5336   -4.5661 H   0  0  0  0  0  0  0  0  0  0  0  0
   -1.3826    7.1425   -5.2102 H   0  0  0  0  0  0  0  0  0  0  0  0
   -0.9620    5.8184   -6.3083 H   0  0  0  0  0  0  0  0  0  0  0  0
    4.0467    3.7070   -7.9449 H   0  0  0  0  0  0  0  0  0  0  0  0
    4.7686    2.8684   -6.6031 H   0  0  0  0  0  0  0  0  0  0  0  0
    1.0356    2.3226   -7.2739 H   0  0  0  0  0  0  0  0  0  0  0  0
    1.6682    2.7345   -8.8820 H   0  0  0  0  0  0  0  0  0  0  0  0
    1.2797    1.0641   -8.4825 H   0  0  0  0  0  0  0  0  0  0  0  0
    5.0327    1.1503   -8.5165 H   0  0  0  0  0  0  0  0  0  0  0  0
    3.6094    0.3119   -9.1529 H   0  0  0  0  0  0  0  0  0  0  0  0
    3.9341    1.9862   -9.6200 H   0  0  0  0  0  0  0  0  0  0  0  0
    2.5435    0.9935   -5.6282 H   0  0  0  0  0  0  0  0  0  0  0  0
    2.6795   -0.2441   -6.8921 H   0  0  0  0  0  0  0  0  0  0  0  0
    6.4211    0.3009   -4.3266 H   0  0  0  0  0  0  0  0  0  0  0  0
    5.5197   -1.6016   -2.9400 H   0  0  0  0  0  0  0  0  0  0  0  0
    5.9534   -1.4417   -1.1033 H   0  0  0  0  0  0  0  0  0  0  0  0
    7.0643   -1.1803    1.2904 H   0  0  0  0  0  0  0  0  0  0  0  0
    7.9143   -2.9268    2.5981 H   0  0  0  0  0  0  0  0  0  0  0  0
    6.9873   -5.6917    1.6764 H   0  0  0  0  0  0  0  0  0  0  0  0
    6.7020   -5.5233    4.1447 H   0  0  0  0  0  0  0  0  0  0  0  0
    8.0978   -6.5248    3.7455 H   0  0  0  0  0  0  0  0  0  0  0  0
    8.3387   -4.8596    4.3033 H   0  0  0  0  0  0  0  0  0  0  0  0
    9.4015   -6.1871    1.6808 H   0  0  0  0  0  0  0  0  0  0  0  0
    9.0640   -4.8588    0.5715 H   0  0  0  0  0  0  0  0  0  0  0  0
    9.7782   -4.5239    2.1601 H   0  0  0  0  0  0  0  0  0  0  0  0
    4.3661   -3.9931    5.1790 H   0  0  0  0  0  0  0  0  0  0  0  0
    5.4038   -2.9439    6.1363 H   0  0  0  0  0  0  0  0  0  0  0  0
    2.3315   -2.8278    6.0017 H   0  0  0  0  0  0  0  0  0  0  0  0
    3.2976   -3.4750    7.3300 H   0  0  0  0  0  0  0  0  0  0  0  0
    8.0713    2.2323    7.8808 H   0  0  0  0  0  0  0  0  0  0  0  0
    6.5814    1.4188    7.4935 H   0  0  0  0  0  0  0  0  0  0  0  0
    6.7128    3.1743    7.2511 H   0  0  0  0  0  0  0  0  0  0  0  0
    7.1038    3.7708   10.9455 H   0  0  0  0  0  0  0  0  0  0  0  0
    8.3129    3.6290    9.7028 H   0  0  0  0  0  0  0  0  0  0  0  0
    6.9057    4.6641    9.4150 H   0  0  0  0  0  0  0  0  0  0  0  0
    5.1871    2.1481   11.6241 H   0  0  0  0  0  0  0  0  0  0  0  0
    4.8808    3.8572   11.2486 H   0  0  0  0  0  0  0  0  0  0  0  0
    3.5892    2.6705   11.0970 H   0  0  0  0  0  0  0  0  0  0  0  0
    4.7178    4.6237    8.7518 H   0  0  0  0  0  0  0  0  0  0  0  0
    4.4327    3.3834    7.5163 H   0  0  0  0  0  0  0  0  0  0  0  0
    3.2606    3.6299    8.8018 H   0  0  0  0  0  0  0  0  0  0  0  0
    2.3718   -0.4088    5.5317 H   0  0  0  0  0  0  0  0  0  0  0  0
    3.3730    0.6661    6.4981 H   0  0  0  0  0  0  0  0  0  0  0  0
    5.4337   -0.3089    5.5744 H   0  0  0  0  0  0  0  0  0  0  0  0
    4.3852    0.2414    4.2604 H   0  0  0  0  0  0  0  0  0  0  0  0
    3.8696   -4.0676    3.0798 H   0  0  0  0  0  0  0  0  0  0  0  0
    4.3174   -3.5464    1.4544 H   0  0  0  0  0  0  0  0  0  0  0  0
    4.9324   -5.0857    2.1276 H   0  0  0  0  0  0  0  0  0  0  0  0
    7.9348    0.5758   -0.0246 H   0  0  0  0  0  0  0  0  0  0  0  0
    7.6045    0.7323   -1.7299 H   0  0  0  0  0  0  0  0  0  0  0  0
    6.2229    2.0697    0.0746 H   0  0  0  0  0  0  0  0  0  0  0  0
    5.8266    2.1938   -2.3439 H   0  0  0  0  0  0  0  0  0  0  0  0
    4.8735    0.6870   -2.3136 H   0  0  0  0  0  0  0  0  0  0  0  0
    2.2083    2.1247   -0.1136 H   0  0  0  0  0  0  0  0  0  0  0  0
    2.7116    0.6598   -0.9760 H   0  0  0  0  0  0  0  0  0  0  0  0
    4.1879    2.0086    1.3741 H   0  0  0  0  0  0  0  0  0  0  0  0
    3.2809    0.4934    1.4243 H   0  0  0  0  0  0  0  0  0  0  0  0
    9.5142   -2.2901   -3.8994 H   0  0  0  0  0  0  0  0  0  0  0  0
    8.1985   -3.2875   -4.5290 H   0  0  0  0  0  0  0  0  0  0  0  0
    8.8598   -0.3811   -5.2490 H   0  0  0  0  0  0  0  0  0  0  0  0
    8.9666   -1.7757   -6.3269 H   0  0  0  0  0  0  0  0  0  0  0  0
    6.5320   -2.0096   -6.3666 H   0  0  0  0  0  0  0  0  0  0  0  0
    6.9243   -0.3287   -6.6977 H   0  0  0  0  0  0  0  0  0  0  0  0
    1.0095    5.6431   -2.5048 H   0  0  0  0  0  0  0  0  0  0  0  0
    2.1395    4.1886   -0.9028 H   0  0  0  0  0  0  0  0  0  0  0  0
    4.2653    2.2516   -4.1003 H   0  0  0  0  0  0  0  0  0  0  0  0
  1  2  1  0
  2  3  1  0
  2  5  1  0
  3  4  1  0
  5  6  2  0
  5 10  1  0
  6  7  1  0
  7  8  2  0
  8  9  1  0
  9 10  2  0
 10 11  1  0
 11 12  1  0
 11 15  2  0
 12 13  1  0
 12 68  1  0
 13 14  1  0
 15 16  1  0
 15 67  1  0
 16 17  1  0
 17 18  1  0
 17 19  1  0
 17 20  1  0
 20 21  1  0
 21 22  1  0
 22 23  1  0
 22 66  2  0
 23 24  1  0
 23 65  1  0
 24 25  1  0
 25 26  1  0
 25 63  1  0
 26 27  1  0
 26 62  2  0
 27 28  1  0
 27 55  1  0
 28 29  1  0
 29 30  1  0
 29 54  2  0
 30 31  1  0
 30 34  1  0
 31 32  1  0
 31 33  1  0
 34 35  1  0
 34 53  1  0
 35 36  1  0
 35 52  2  0
 36 37  1  0
 36 51  1  0
 36 73  1  0
 37 38  1  0
 38 39  1  0
 39 40  1  0
 39 50  1  0
 40 41  1  0
 40 49  2  0
 42 43  1  0
 43 44  1  0
 43 47  1  0
 43 48  1  0
 44 45  1  0
 44 46  1  0
 50 51  1  0
 55 56  1  0
 56 57  1  0
 56 61  1  0
 57 58  1  0
 58 59  1  0
 58 71  1  0
 59 60  1  0
 60 61  1  0
 63 64  1  0
 64 65  1  0
 67 68  2  0
 67 72  1  0
 68 69  1  0
 69 70  2  0
 70 71  1  0
 71 72  2  0
  1 74  1  0
  1 75  1  0
  1 76  1  0
  2 77  1  1
  4 78  1  0
  4 79  1  0
  4 80  1  0
  7 81  1  0
  8 82  1  0
  9 83  1  0
 13 84  1  0
 13 85  1  0
 14 86  1  0
 14 87  1  0
 14 88  1  0
 16 89  1  0
 16 90  1  0
 18 91  1  0
 18 92  1  0
 18 93  1  0
 19 94  1  0
 19 95  1  0
 19 96  1  0
 20 97  1  0
 20 98  1  0
 23 99  1  1
 24100  1  0
 27101  1  6
 28102  1  0
 30103  1  1
 31104  1  0
 32105  1  0
 32106  1  0
 32107  1  0
 33108  1  0
 33109  1  0
 33110  1  0
 37111  1  0
 37112  1  0
 38113  1  0
 38114  1  0
 45115  1  0
 45116  1  0
 45117  1  0
 46118  1  0
 46119  1  0
 46120  1  0
 47121  1  0
 47122  1  0
 47123  1  0
 48124  1  0
 48125  1  0
 48126  1  0
 50127  1  0
 50128  1  0
 51129  1  0
 51130  1  0
 53131  1  0
 53132  1  0
 53133  1  0
 55134  1  0
 55135  1  0
 56136  1  1
 57137  1  0
 57138  1  0
 59139  1  0
 59140  1  0
 60141  1  0
 60142  1  0
 63143  1  0
 63144  1  0
 64145  1  0
 64146  1  0
 65147  1  0
 65148  1  0
 69149  1  0
 70150  1  0
 72151  1  0
 41 42  3  0
M  END
$$$$
