 xtb: 6.7.1 (edcfbbe)
          08172523113D

151157  0     0  0            999 V2000
    4.0758    8.1717   -7.6376 C   0  0  0  0  0  0  0  0  0  0  0  0
    3.8396    6.7118   -7.2538 C   0  0  0  0  0  0  0  0  0  0  0  0
    4.9691    5.8922   -7.5191 O   0  0  0  0  0  0  0  0  0  0  0  0
    5.9839    5.9678   -6.5532 C   0  0  0  0  0  0  0  0  0  0  0  0
    2.6904    6.1185   -8.0456 C   0  0  0  0  0  0  0  0  0  0  0  0
    2.4586    6.6321   -9.2414 N   0  0  0  0  0  0  0  0  0  0  0  0
    1.4695    6.1537   -9.9722 C   0  0  0  0  0  0  0  0  0  0  0  0
    0.6325    5.1374   -9.5404 C   0  0  0  0  0  0  0  0  0  0  0  0
    0.8644    4.5957   -8.2881 C   0  0  0  0  0  0  0  0  0  0  0  0
    1.9207    5.0724   -7.5169 C   0  0  0  0  0  0  0  0  0  0  0  0
    2.1854    4.5272   -6.1775 C   0  0  0  0  0  0  0  0  0  0  0  0
    1.4427    4.9549   -5.0993 N   0  0  0  0  0  0  0  0  0  0  0  0
    0.3580    5.8986   -5.1334 C   0  0  0  0  0  0  0  0  0  0  0  0
   -1.0047    5.2068   -5.1125 C   0  0  0  0  0  0  0  0  0  0  0  0
    3.1439    3.6292   -5.7718 C   0  0  0  0  0  0  0  0  0  0  0  0
    4.1398    2.9478   -6.6541 C   0  0  0  0  0  0  0  0  0  0  0  0
    3.7329    1.5445   -7.1620 C   0  0  0  0  0  0  0  0  0  0  0  0
    2.3003    1.5428   -7.6921 C   0  0  0  0  0  0  0  0  0  0  0  0
    4.6895    1.1344   -8.2843 C   0  0  0  0  0  0  0  0  0  0  0  0
    3.8215    0.5181   -6.0280 C   0  0  0  0  0  0  0  0  0  0  0  0
    5.1842    0.3844   -5.6113 O   0  0  0  0  0  0  0  0  0  0  0  0
    5.4123   -0.3692   -4.5465 C   0  0  0  0  0  0  0  0  0  0  0  0
    6.8871   -0.3876   -4.1717 C   0  0  0  0  0  0  0  0  0  0  0  0
    7.2227   -1.6037   -3.4516 N   0  0  0  0  0  0  0  0  0  0  0  0
    8.4518   -1.4352   -2.8103 N   0  0  0  0  0  0  0  0  0  0  0  0
    8.6369   -0.8561   -1.6013 C   0  0  0  0  0  0  0  0  0  0  0  0
    7.3642   -0.5988   -0.7694 C   0  0  0  0  0  0  0  0  0  0  0  0
    7.2524   -1.6105    0.2568 N   0  0  0  0  0  0  0  0  0  0  0  0
    6.6080   -2.7620    0.0218 C   0  0  0  0  0  0  0  0  0  0  0  0
    6.4595   -3.6219    1.2798 C   0  0  0  0  0  0  0  0  0  0  0  0
    6.3209   -5.1157    0.9632 C   0  0  0  0  0  0  0  0  0  0  0  0
    5.9520   -5.9021    2.2176 C   0  0  0  0  0  0  0  0  0  0  0  0
    7.6474   -5.6102    0.3885 C   0  0  0  0  0  0  0  0  0  0  0  0
    5.3347   -3.0628    2.0317 N   0  0  0  0  0  0  0  0  0  0  0  0
    5.6454   -2.2464    3.0547 C   0  0  0  0  0  0  0  0  0  0  0  0
    4.5373   -1.7173    3.9798 C   0  0  0  0  0  0  0  0  0  0  0  0
    4.2620   -2.7794    5.0515 C   0  0  0  0  0  0  0  0  0  0  0  0
    3.2618   -2.2436    6.0774 C   0  0  0  0  0  0  0  0  0  0  0  0
    3.7321   -1.0005    6.6384 N   0  0  0  0  0  0  0  0  0  0  0  0
    4.0176   -0.9182    7.9617 C   0  0  0  0  0  0  0  0  0  0  0  0
    4.4988    0.3679    8.4083 C   0  0  0  0  0  0  0  0  0  0  0  0
    4.9072    1.3625    8.9492 C   0  0  0  0  0  0  0  0  0  0  0  0
    5.3032    2.6132    9.5915 C   0  0  0  0  0  0  0  0  0  0  0  0
    6.6106    3.0282    9.0730 N   0  0  0  0  0  0  0  0  0  0  0  0
    6.7142    3.0464    7.6306 C   0  0  0  0  0  0  0  0  0  0  0  0
    7.1315    4.2541    9.6362 C   0  0  0  0  0  0  0  0  0  0  0  0
    5.4117    2.3076   11.0954 C   0  0  0  0  0  0  0  0  0  0  0  0
    4.1662    3.6299    9.3468 C   0  0  0  0  0  0  0  0  0  0  0  0
    3.8564   -1.8432    8.7365 O   0  0  0  0  0  0  0  0  0  0  0  0
    3.9561    0.0432    5.6713 C   0  0  0  0  0  0  0  0  0  0  0  0
    4.9836   -0.4061    4.6305 C   0  0  0  0  0  0  0  0  0  0  0  0
    6.8044   -1.9999    3.3614 O   0  0  0  0  0  0  0  0  0  0  0  0
    4.0246   -3.1707    1.4240 C   0  0  0  0  0  0  0  0  0  0  0  0
    6.1362   -3.0603   -1.0609 O   0  0  0  0  0  0  0  0  0  0  0  0
    7.4028    0.8074   -0.1694 C   0  0  0  0  0  0  0  0  0  0  0  0
    6.0068    1.3983    0.0452 C   0  0  0  0  0  0  0  0  0  0  0  0
    5.2897    1.6961   -1.2824 C   0  0  0  0  0  0  0  0  0  0  0  0
    3.9875    2.2590   -0.9970 N   0  0  0  0  0  0  0  0  0  0  0  0
    3.2142    1.3154   -0.2073 C   0  0  0  0  0  0  0  0  0  0  0  0
    3.9659    1.0375    1.0924 C   0  0  0  0  0  0  0  0  0  0  0  0
    5.2484    0.5091    0.8419 O   0  0  0  0  0  0  0  0  0  0  0  0
    9.7445   -0.6045   -1.1641 O   0  0  0  0  0  0  0  0  0  0  0  0
    9.5148   -1.4478   -3.7988 C   0  0  0  0  0  0  0  0  0  0  0  0
    9.2980   -0.2891   -4.7808 C   0  0  0  0  0  0  0  0  0  0  0  0
    7.8722   -0.3079   -5.3428 C   0  0  0  0  0  0  0  0  0  0  0  0
    4.5586   -0.9173   -3.8981 O   0  0  0  0  0  0  0  0  0  0  0  0
    3.0002    3.5041   -4.3555 C   0  0  0  0  0  0  0  0  0  0  0  0
    1.9211    4.3362   -3.9769 C   0  0  0  0  0  0  0  0  0  0  0  0
    1.5269    4.4444   -2.6485 C   0  0  0  0  0  0  0  0  0  0  0  0
    2.2222    3.7237   -1.7079 C   0  0  0  0  0  0  0  0  0  0  0  0
    3.3077    2.8959   -2.0537 C   0  0  0  0  0  0  0  0  0  0  0  0
    3.6988    2.7923   -3.3774 C   0  0  0  0  0  0  0  0  0  0  0  0
    3.3454   -1.4590    3.3073 F   0  0  0  0  0  0  0  0  0  0  0  0
    4.8848    8.5955   -7.0482 H   0  0  0  0  0  0  0  0  0  0  0  0
    4.3269    8.2265   -8.6920 H   0  0  0  0  0  0  0  0  0  0  0  0
    3.1720    8.7475   -7.4596 H   0  0  0  0  0  0  0  0  0  0  0  0
    3.5981    6.6434   -6.1789 H   0  0  0  0  0  0  0  0  0  0  0  0
    5.6002    5.7124   -5.5569 H   0  0  0  0  0  0  0  0  0  0  0  0
    6.7374    5.2398   -6.8485 H   0  0  0  0  0  0  0  0  0  0  0  0
    6.4437    6.9612   -6.5132 H   0  0  0  0  0  0  0  0  0  0  0  0
    1.3402    6.6180  -10.9410 H   0  0  0  0  0  0  0  0  0  0  0  0
   -0.1765    4.7827  -10.1599 H   0  0  0  0  0  0  0  0  0  0  0  0
    0.2353    3.8039   -7.9068 H   0  0  0  0  0  0  0  0  0  0  0  0
    0.4474    6.5605   -4.2658 H   0  0  0  0  0  0  0  0  0  0  0  0
    0.4550    6.5047   -6.0389 H   0  0  0  0  0  0  0  0  0  0  0  0
   -1.0907    4.5710   -4.2348 H   0  0  0  0  0  0  0  0  0  0  0  0
   -1.7983    5.9487   -5.0885 H   0  0  0  0  0  0  0  0  0  0  0  0
   -1.1323    4.5906   -5.9988 H   0  0  0  0  0  0  0  0  0  0  0  0
    4.3160    3.5859   -7.5218 H   0  0  0  0  0  0  0  0  0  0  0  0
    5.0840    2.8451   -6.1151 H   0  0  0  0  0  0  0  0  0  0  0  0
    1.5982    1.7872   -6.8986 H   0  0  0  0  0  0  0  0  0  0  0  0
    2.2017    2.2760   -8.4880 H   0  0  0  0  0  0  0  0  0  0  0  0
    2.0431    0.5635   -8.0901 H   0  0  0  0  0  0  0  0  0  0  0  0
    5.7162    1.1405   -7.9290 H   0  0  0  0  0  0  0  0  0  0  0  0
    4.4541    0.1330   -8.6385 H   0  0  0  0  0  0  0  0  0  0  0  0
    4.6065    1.8253   -9.1195 H   0  0  0  0  0  0  0  0  0  0  0  0
    3.2121    0.8241   -5.1716 H   0  0  0  0  0  0  0  0  0  0  0  0
    3.4676   -0.4628   -6.3641 H   0  0  0  0  0  0  0  0  0  0  0  0
    7.0329    0.5131   -3.5373 H   0  0  0  0  0  0  0  0  0  0  0  0
    6.5001   -1.9852   -2.8434 H   0  0  0  0  0  0  0  0  0  0  0  0
    6.4755   -0.7104   -1.3947 H   0  0  0  0  0  0  0  0  0  0  0  0
    7.5950   -1.4001    1.1829 H   0  0  0  0  0  0  0  0  0  0  0  0
    7.3406   -3.4830    1.9148 H   0  0  0  0  0  0  0  0  0  0  0  0
    5.5532   -5.2584    0.1973 H   0  0  0  0  0  0  0  0  0  0  0  0
    4.9768   -5.6073    2.5960 H   0  0  0  0  0  0  0  0  0  0  0  0
    5.9249   -6.9662    1.9965 H   0  0  0  0  0  0  0  0  0  0  0  0
    6.6898   -5.7315    2.9988 H   0  0  0  0  0  0  0  0  0  0  0  0
    7.5741   -6.6640    0.1315 H   0  0  0  0  0  0  0  0  0  0  0  0
    7.9011   -5.0549   -0.5107 H   0  0  0  0  0  0  0  0  0  0  0  0
    8.4496   -5.4867    1.1131 H   0  0  0  0  0  0  0  0  0  0  0  0
    3.8644   -3.6828    4.5868 H   0  0  0  0  0  0  0  0  0  0  0  0
    5.2068   -3.0229    5.5386 H   0  0  0  0  0  0  0  0  0  0  0  0
    2.2938   -2.0742    5.5906 H   0  0  0  0  0  0  0  0  0  0  0  0
    3.1355   -2.9532    6.8975 H   0  0  0  0  0  0  0  0  0  0  0  0
    7.7644    3.1699    7.3657 H   0  0  0  0  0  0  0  0  0  0  0  0
    6.3682    2.0973    7.2267 H   0  0  0  0  0  0  0  0  0  0  0  0
    6.1459    3.8645    7.1590 H   0  0  0  0  0  0  0  0  0  0  0  0
    7.0922    4.2196   10.7212 H   0  0  0  0  0  0  0  0  0  0  0  0
    8.1772    4.3424    9.3395 H   0  0  0  0  0  0  0  0  0  0  0  0
    6.6033    5.1549    9.2862 H   0  0  0  0  0  0  0  0  0  0  0  0
    6.3227    1.7470   11.2870 H   0  0  0  0  0  0  0  0  0  0  0  0
    5.4182    3.2206   11.6851 H   0  0  0  0  0  0  0  0  0  0  0  0
    4.5607    1.7062   11.4063 H   0  0  0  0  0  0  0  0  0  0  0  0
    4.3736    4.5599    9.8707 H   0  0  0  0  0  0  0  0  0  0  0  0
    4.0559    3.8366    8.2844 H   0  0  0  0  0  0  0  0  0  0  0  0
    3.2280    3.2240    9.7167 H   0  0  0  0  0  0  0  0  0  0  0  0
    3.0070    0.2678    5.1673 H   0  0  0  0  0  0  0  0  0  0  0  0
    4.3029    0.9418    6.1841 H   0  0  0  0  0  0  0  0  0  0  0  0
    5.9562   -0.5706    5.0932 H   0  0  0  0  0  0  0  0  0  0  0  0
    5.0928    0.3532    3.8550 H   0  0  0  0  0  0  0  0  0  0  0  0
    3.2928   -3.5732    2.1246 H   0  0  0  0  0  0  0  0  0  0  0  0
    3.6792   -2.1990    1.0689 H   0  0  0  0  0  0  0  0  0  0  0  0
    4.0934   -3.8329    0.5667 H   0  0  0  0  0  0  0  0  0  0  0  0
    7.9307    0.7677    0.7843 H   0  0  0  0  0  0  0  0  0  0  0  0
    7.9640    1.4722   -0.8283 H   0  0  0  0  0  0  0  0  0  0  0  0
    6.1061    2.3574    0.5848 H   0  0  0  0  0  0  0  0  0  0  0  0
    5.8776    2.4271   -1.8420 H   0  0  0  0  0  0  0  0  0  0  0  0
    5.1951    0.7687   -1.8696 H   0  0  0  0  0  0  0  0  0  0  0  0
    2.2319    1.7301    0.0149 H   0  0  0  0  0  0  0  0  0  0  0  0
    3.0825    0.3669   -0.7558 H   0  0  0  0  0  0  0  0  0  0  0  0
    4.0579    1.9754    1.6629 H   0  0  0  0  0  0  0  0  0  0  0  0
    3.4364    0.2967    1.6914 H   0  0  0  0  0  0  0  0  0  0  0  0
   10.4671   -1.3493   -3.2782 H   0  0  0  0  0  0  0  0  0  0  0  0
    9.4681   -2.4051   -4.3216 H   0  0  0  0  0  0  0  0  0  0  0  0
    9.4670    0.6526   -4.2526 H   0  0  0  0  0  0  0  0  0  0  0  0
   10.0222   -0.3578   -5.5925 H   0  0  0  0  0  0  0  0  0  0  0  0
    7.7324   -1.1891   -5.9695 H   0  0  0  0  0  0  0  0  0  0  0  0
    7.6864    0.5836   -5.9412 H   0  0  0  0  0  0  0  0  0  0  0  0
    0.7089    5.0841   -2.3527 H   0  0  0  0  0  0  0  0  0  0  0  0
    1.9502    3.8105   -0.6671 H   0  0  0  0  0  0  0  0  0  0  0  0
    4.5364    2.1781   -3.6659 H   0  0  0  0  0  0  0  0  0  0  0  0
  1  2  1  0  0  0  0
  2  3  1  0  0  0  0
  3  4  1  0  0  0  0
  2  5  1  0  0  0  0
  5  6  4  0  0  0  0
  6  7  4  0  0  0  0
  7  8  4  0  0  0  0
  8  9  4  0  0  0  0
  5 10  4  0  0  0  0
  9 10  4  0  0  0  0
 10 11  1  0  0  0  0
 11 12  1  0  0  0  0
 12 13  1  0  0  0  0
 13 14  1  0  0  0  0
 11 15  2  0  0  0  0
 15 16  1  0  0  0  0
 16 17  1  0  0  0  0
 17 18  1  0  0  0  0
 17 19  1  0  0  0  0
 17 20  1  0  0  0  0
 20 21  1  0  0  0  0
 21 22  1  0  0  0  0
 22 23  1  0  0  0  0
 23 24  1  0  0  0  0
 24 25  1  0  0  0  0
 25 26  4  0  0  0  0
 26 27  1  0  0  0  0
 27 28  1  0  0  0  0
 28 29  4  0  0  0  0
 29 30  1  0  0  0  0
 30 31  1  0  0  0  0
 31 32  1  0  0  0  0
 31 33  1  0  0  0  0
 30 34  1  0  0  0  0
 34 35  4  0  0  0  0
 35 36  1  0  0  0  0
 36 37  1  0  0  0  0
 37 38  1  0  0  0  0
 38 39  1  0  0  0  0
 39 40  4  0  0  0  0
 40 41  1  0  0  0  0
 41 42  3  0  0  0  0
 42 43  1  0  0  0  0
 43 44  1  0  0  0  0
 44 45  1  0  0  0  0
 44 46  1  0  0  0  0
 43 47  1  0  0  0  0
 43 48  1  0  0  0  0
 40 49  2  0  0  0  0
 39 50  1  0  0  0  0
 36 51  1  0  0  0  0
 50 51  1  0  0  0  0
 35 52  2  0  0  0  0
 34 53  1  0  0  0  0
 29 54  2  0  0  0  0
 27 55  1  0  0  0  0
 55 56  1  0  0  0  0
 56 57  1  0  0  0  0
 57 58  1  0  0  0  0
 58 59  1  0  0  0  0
 59 60  1  0  0  0  0
 56 61  1  0  0  0  0
 60 61  1  0  0  0  0
 26 62  2  0  0  0  0
 25 63  1  0  0  0  0
 63 64  1  0  0  0  0
 23 65  1  0  0  0  0
 64 65  1  0  0  0  0
 22 66  2  0  0  0  0
 15 67  4  0  0  0  0
 12 68  1  0  0  0  0
 67 68  4  0  0  0  0
 68 69  4  0  0  0  0
 69 70  2  0  0  0  0
 58 71  1  0  0  0  0
 70 71  4  0  0  0  0
 67 72  4  0  0  0  0
 71 72  4  0  0  0  0
 36 73  1  0  0  0  0
  1 74  1  0  0  0  0
  1 75  1  0  0  0  0
  1 76  1  0  0  0  0
  2 77  1  0  0  0  0
  4 78  1  0  0  0  0
  4 79  1  0  0  0  0
  4 80  1  0  0  0  0
  7 81  1  0  0  0  0
  8 82  1  0  0  0  0
  9 83  1  0  0  0  0
 13 84  1  0  0  0  0
 13 85  1  0  0  0  0
 14 86  1  0  0  0  0
 14 87  1  0  0  0  0
 14 88  1  0  0  0  0
 16 89  1  0  0  0  0
 16 90  1  0  0  0  0
 18 91  1  0  0  0  0
 18 92  1  0  0  0  0
 18 93  1  0  0  0  0
 19 94  1  0  0  0  0
 19 95  1  0  0  0  0
 19 96  1  0  0  0  0
 20 97  1  0  0  0  0
 20 98  1  0  0  0  0
 23 99  1  0  0  0  0
 24100  1  0  0  0  0
 27101  1  0  0  0  0
 28102  1  0  0  0  0
 30103  1  0  0  0  0
 31104  1  0  0  0  0
 32105  1  0  0  0  0
 32106  1  0  0  0  0
 32107  1  0  0  0  0
 33108  1  0  0  0  0
 33109  1  0  0  0  0
 33110  1  0  0  0  0
 37111  1  0  0  0  0
 37112  1  0  0  0  0
 38113  1  0  0  0  0
 38114  1  0  0  0  0
 45115  1  0  0  0  0
 45116  1  0  0  0  0
 45117  1  0  0  0  0
 46118  1  0  0  0  0
 46119  1  0  0  0  0
 46120  1  0  0  0  0
 47121  1  0  0  0  0
 47122  1  0  0  0  0
 47123  1  0  0  0  0
 48124  1  0  0  0  0
 48125  1  0  0  0  0
 48126  1  0  0  0  0
 50127  1  0  0  0  0
 50128  1  0  0  0  0
 51129  1  0  0  0  0
 51130  1  0  0  0  0
 53131  1  0  0  0  0
 53132  1  0  0  0  0
 53133  1  0  0  0  0
 55134  1  0  0  0  0
 55135  1  0  0  0  0
 56136  1  0  0  0  0
 57137  1  0  0  0  0
 57138  1  0  0  0  0
 59139  1  0  0  0  0
 59140  1  0  0  0  0
 60141  1  0  0  0  0
 60142  1  0  0  0  0
 63143  1  0  0  0  0
 63144  1  0  0  0  0
 64145  1  0  0  0  0
 64146  1  0  0  0  0
 65147  1  0  0  0  0
 65148  1  0  0  0  0
 69149  1  0  0  0  0
 70150  1  0  0  0  0
 72151  1  0  0  0  0
M  END
$$$$
