 energy: -221.290204353521 gnorm: 0.000299904998 xtb: 6.7.1 (edcfbbe)
          08232519433D

151157  0     0  0            999 V2000
    3.5186   -0.0464    6.5992 C   0  0  0  0  0  0  0  0  0  0  0  0
    3.9097   -1.1213    5.5770 C   0  0  0  0  0  0  0  0  0  0  0  0
    3.4780   -0.7910    4.2673 O   0  0  0  0  0  0  0  0  0  0  0  0
    4.4101   -0.0487    3.5287 C   0  0  0  0  0  0  0  0  0  0  0  0
    3.3597   -2.4625    6.0102 C   0  0  0  0  0  0  0  0  0  0  0  0
    4.2779   -3.2345    6.5790 N   0  0  0  0  0  0  0  0  0  0  0  0
    3.9344   -4.3987    7.0948 C   0  0  0  0  0  0  0  0  0  0  0  0
    2.6304   -4.8656    7.0894 C   0  0  0  0  0  0  0  0  0  0  0  0
    1.6711   -4.0750    6.4860 C   0  0  0  0  0  0  0  0  0  0  0  0
    2.0187   -2.8514    5.9105 C   0  0  0  0  0  0  0  0  0  0  0  0
    0.9508   -2.0671    5.2723 C   0  0  0  0  0  0  0  0  0  0  0  0
    0.0063   -1.4445    6.0582 N   0  0  0  0  0  0  0  0  0  0  0  0
    0.0023   -1.3617    7.4950 C   0  0  0  0  0  0  0  0  0  0  0  0
   -1.0733   -2.2504    8.1190 C   0  0  0  0  0  0  0  0  0  0  0  0
    0.6274   -1.9319    3.9406 C   0  0  0  0  0  0  0  0  0  0  0  0
    1.3749   -2.4050    2.7332 C   0  0  0  0  0  0  0  0  0  0  0  0
    1.0236   -3.8130    2.2015 C   0  0  0  0  0  0  0  0  0  0  0  0
    1.9411   -4.1243    1.0163 C   0  0  0  0  0  0  0  0  0  0  0  0
    1.2423   -4.8614    3.2930 C   0  0  0  0  0  0  0  0  0  0  0  0
   -0.4554   -3.9111    1.7730 C   0  0  0  0  0  0  0  0  0  0  0  0
   -0.7344   -3.4813    0.4323 O   0  0  0  0  0  0  0  0  0  0  0  0
   -0.8480   -4.4365   -0.4873 C   0  0  0  0  0  0  0  0  0  0  0  0
   -1.3653   -3.8916   -1.8139 C   0  0  0  0  0  0  0  0  0  0  0  0
   -0.6177   -2.7482   -2.3169 N   0  0  0  0  0  0  0  0  0  0  0  0
   -1.3186   -2.1748   -3.3853 N   0  0  0  0  0  0  0  0  0  0  0  0
   -2.3030   -1.2520   -3.2882 C   0  0  0  0  0  0  0  0  0  0  0  0
   -2.4969   -0.6145   -1.8992 C   0  0  0  0  0  0  0  0  0  0  0  0
   -1.8773    0.6958   -1.9001 N   0  0  0  0  0  0  0  0  0  0  0  0
   -0.5820    0.8550   -1.5998 C   0  0  0  0  0  0  0  0  0  0  0  0
   -0.0784    2.2993   -1.6657 C   0  0  0  0  0  0  0  0  0  0  0  0
    0.6332    2.5797   -2.9993 C   0  0  0  0  0  0  0  0  0  0  0  0
    1.0390    4.0510   -3.0721 C   0  0  0  0  0  0  0  0  0  0  0  0
   -0.2912    2.2409   -4.1684 C   0  0  0  0  0  0  0  0  0  0  0  0
    0.7460    2.5532   -0.4826 N   0  0  0  0  0  0  0  0  0  0  0  0
    0.0804    3.0269    0.5859 C   0  0  0  0  0  0  0  0  0  0  0  0
    0.7965    3.1978    1.9373 C   0  0  0  0  0  0  0  0  0  0  0  0
   -0.0292    4.1230    2.8364 C   0  0  0  0  0  0  0  0  0  0  0  0
    0.6055    4.2360    4.2216 C   0  0  0  0  0  0  0  0  0  0  0  0
    0.8086    2.9338    4.8031 N   0  0  0  0  0  0  0  0  0  0  0  0
    0.2863    2.5244    5.9757 C   0  0  0  0  0  0  0  0  0  0  0  0
   -0.6459    3.4260    6.6069 C   0  0  0  0  0  0  0  0  0  0  0  0
   -1.4846    3.9648    7.2817 C   0  0  0  0  0  0  0  0  0  0  0  0
   -2.4724    4.7097    8.0568 C   0  0  0  0  0  0  0  0  0  0  0  0
   -3.4662    3.7508    8.5525 N   0  0  0  0  0  0  0  0  0  0  0  0
   -2.9062    2.6118    9.2503 C   0  0  0  0  0  0  0  0  0  0  0  0
   -4.5539    4.3242    9.3131 C   0  0  0  0  0  0  0  0  0  0  0  0
   -3.1405    5.7096    7.0977 C   0  0  0  0  0  0  0  0  0  0  0  0
   -1.7128    5.4750    9.1616 C   0  0  0  0  0  0  0  0  0  0  0  0
    0.5616    1.4574    6.5018 O   0  0  0  0  0  0  0  0  0  0  0  0
    1.6185    2.0445    4.0066 C   0  0  0  0  0  0  0  0  0  0  0  0
    0.9754    1.8463    2.6348 C   0  0  0  0  0  0  0  0  0  0  0  0
   -1.1082    3.3138    0.5260 O   0  0  0  0  0  0  0  0  0  0  0  0
    2.0982    2.0381   -0.5025 C   0  0  0  0  0  0  0  0  0  0  0  0
    0.1369   -0.0828   -1.2855 O   0  0  0  0  0  0  0  0  0  0  0  0
   -3.9799   -0.5135   -1.5502 C   0  0  0  0  0  0  0  0  0  0  0  0
   -4.2453    0.1246   -0.1772 C   0  0  0  0  0  0  0  0  0  0  0  0
   -3.1405   -0.1916    0.8337 C   0  0  0  0  0  0  0  0  0  0  0  0
   -3.4170    0.4179    2.1188 N   0  0  0  0  0  0  0  0  0  0  0  0
   -3.5942    1.8556    1.9483 C   0  0  0  0  0  0  0  0  0  0  0  0
   -4.6777    2.1219    0.9037 C   0  0  0  0  0  0  0  0  0  0  0  0
   -4.3681    1.5249   -0.3357 O   0  0  0  0  0  0  0  0  0  0  0  0
   -2.9431   -0.8777   -4.2537 O   0  0  0  0  0  0  0  0  0  0  0  0
   -1.2400   -3.0410   -4.5475 C   0  0  0  0  0  0  0  0  0  0  0  0
   -1.9094   -4.3768   -4.2079 C   0  0  0  0  0  0  0  0  0  0  0  0
   -1.3187   -4.9519   -2.9199 C   0  0  0  0  0  0  0  0  0  0  0  0
   -0.6686   -5.6089   -0.2866 O   0  0  0  0  0  0  0  0  0  0  0  0
   -0.5702   -1.1584    3.9085 C   0  0  0  0  0  0  0  0  0  0  0  0
   -0.9197   -0.8597    5.2435 C   0  0  0  0  0  0  0  0  0  0  0  0
   -2.0393   -0.0819    5.5234 C   0  0  0  0  0  0  0  0  0  0  0  0
   -2.8172    0.3469    4.4721 C   0  0  0  0  0  0  0  0  0  0  0  0
   -2.5082    0.0312    3.1349 C   0  0  0  0  0  0  0  0  0  0  0  0
   -1.3654   -0.7002    2.8577 C   0  0  0  0  0  0  0  0  0  0  0  0
    2.0450    3.7990    1.7511 F   0  0  0  0  0  0  0  0  0  0  0  0
    3.8108   -0.3696    7.5949 H   0  0  0  0  0  0  0  0  0  0  0  0
    4.0301    0.8872    6.3751 H   0  0  0  0  0  0  0  0  0  0  0  0
    2.4467    0.1318    6.5781 H   0  0  0  0  0  0  0  0  0  0  0  0
    5.0048   -1.2330    5.5827 H   0  0  0  0  0  0  0  0  0  0  0  0
    5.3566   -0.5936    3.4195 H   0  0  0  0  0  0  0  0  0  0  0  0
    3.9701    0.1043    2.5448 H   0  0  0  0  0  0  0  0  0  0  0  0
    4.6196    0.9248    3.9863 H   0  0  0  0  0  0  0  0  0  0  0  0
    4.7411   -4.9702    7.5348 H   0  0  0  0  0  0  0  0  0  0  0  0
    2.3751   -5.8140    7.5358 H   0  0  0  0  0  0  0  0  0  0  0  0
    0.6412   -4.4012    6.4504 H   0  0  0  0  0  0  0  0  0  0  0  0
    0.9881   -1.6575    7.8620 H   0  0  0  0  0  0  0  0  0  0  0  0
   -0.1680   -0.3178    7.7715 H   0  0  0  0  0  0  0  0  0  0  0  0
   -1.0876   -2.1094    9.1966 H   0  0  0  0  0  0  0  0  0  0  0  0
   -2.0525   -1.9981    7.7202 H   0  0  0  0  0  0  0  0  0  0  0  0
   -0.8778   -3.2998    7.9113 H   0  0  0  0  0  0  0  0  0  0  0  0
    1.1988   -1.6898    1.9263 H   0  0  0  0  0  0  0  0  0  0  0  0
    2.4399   -2.3937    2.9655 H   0  0  0  0  0  0  0  0  0  0  0  0
    2.9766   -4.1458    1.3473 H   0  0  0  0  0  0  0  0  0  0  0  0
    1.6957   -5.0934    0.5875 H   0  0  0  0  0  0  0  0  0  0  0  0
    1.8435   -3.3671    0.2408 H   0  0  0  0  0  0  0  0  0  0  0  0
    0.5125   -4.7347    4.0876 H   0  0  0  0  0  0  0  0  0  0  0  0
    1.1386   -5.8639    2.8831 H   0  0  0  0  0  0  0  0  0  0  0  0
    2.2381   -4.7624    3.7171 H   0  0  0  0  0  0  0  0  0  0  0  0
   -0.7812   -4.9533    1.8504 H   0  0  0  0  0  0  0  0  0  0  0  0
   -1.0740   -3.2854    2.4191 H   0  0  0  0  0  0  0  0  0  0  0  0
   -2.4243   -3.6240   -1.6160 H   0  0  0  0  0  0  0  0  0  0  0  0
   -0.3339   -2.0546   -1.6282 H   0  0  0  0  0  0  0  0  0  0  0  0
   -1.9879   -1.2206   -1.1463 H   0  0  0  0  0  0  0  0  0  0  0  0
   -2.4824    1.4830   -2.0757 H   0  0  0  0  0  0  0  0  0  0  0  0
   -0.9373    2.9736   -1.5820 H   0  0  0  0  0  0  0  0  0  0  0  0
    1.5195    1.9437   -3.0740 H   0  0  0  0  0  0  0  0  0  0  0  0
    1.6437    4.3442   -2.2180 H   0  0  0  0  0  0  0  0  0  0  0  0
    1.6092    4.2387   -3.9788 H   0  0  0  0  0  0  0  0  0  0  0  0
    0.1523    4.6811   -3.0881 H   0  0  0  0  0  0  0  0  0  0  0  0
   -0.5382    1.1826   -4.1899 H   0  0  0  0  0  0  0  0  0  0  0  0
   -1.2158    2.8111   -4.1077 H   0  0  0  0  0  0  0  0  0  0  0  0
    0.1994    2.4910   -5.1061 H   0  0  0  0  0  0  0  0  0  0  0  0
   -0.0935    5.1094    2.3753 H   0  0  0  0  0  0  0  0  0  0  0  0
   -1.0359    3.7142    2.9138 H   0  0  0  0  0  0  0  0  0  0  0  0
    1.5795    4.7352    4.1303 H   0  0  0  0  0  0  0  0  0  0  0  0
   -0.0336    4.8278    4.8799 H   0  0  0  0  0  0  0  0  0  0  0  0
   -2.5540    2.8539   10.2651 H   0  0  0  0  0  0  0  0  0  0  0  0
   -3.6819    1.8499    9.3354 H   0  0  0  0  0  0  0  0  0  0  0  0
   -2.0766    2.2004    8.6797 H   0  0  0  0  0  0  0  0  0  0  0  0
   -4.2483    4.6919   10.3052 H   0  0  0  0  0  0  0  0  0  0  0  0
   -5.0184    5.1368    8.7616 H   0  0  0  0  0  0  0  0  0  0  0  0
   -5.3039    3.5468    9.4620 H   0  0  0  0  0  0  0  0  0  0  0  0
   -3.7049    6.4609    7.6435 H   0  0  0  0  0  0  0  0  0  0  0  0
   -2.3787    6.2183    6.5111 H   0  0  0  0  0  0  0  0  0  0  0  0
   -3.8062    5.1789    6.4223 H   0  0  0  0  0  0  0  0  0  0  0  0
   -1.1900    4.7819    9.8164 H   0  0  0  0  0  0  0  0  0  0  0  0
   -0.9803    6.1399    8.7107 H   0  0  0  0  0  0  0  0  0  0  0  0
   -2.4063    6.0700    9.7511 H   0  0  0  0  0  0  0  0  0  0  0  0
    2.6175    2.4792    3.8846 H   0  0  0  0  0  0  0  0  0  0  0  0
    1.6996    1.0852    4.5188 H   0  0  0  0  0  0  0  0  0  0  0  0
   -0.0098    1.3912    2.7553 H   0  0  0  0  0  0  0  0  0  0  0  0
    1.5899    1.1675    2.0459 H   0  0  0  0  0  0  0  0  0  0  0  0
    2.5955    2.1928    0.4460 H   0  0  0  0  0  0  0  0  0  0  0  0
    2.0685    0.9705   -0.7281 H   0  0  0  0  0  0  0  0  0  0  0  0
    2.6808    2.5503   -1.2687 H   0  0  0  0  0  0  0  0  0  0  0  0
   -4.4872    0.0797   -2.3130 H   0  0  0  0  0  0  0  0  0  0  0  0
   -4.4044   -1.5186   -1.5666 H   0  0  0  0  0  0  0  0  0  0  0  0
   -5.2012   -0.2618    0.2185 H   0  0  0  0  0  0  0  0  0  0  0  0
   -3.0775   -1.2740    0.9692 H   0  0  0  0  0  0  0  0  0  0  0  0
   -2.1914    0.1980    0.4395 H   0  0  0  0  0  0  0  0  0  0  0  0
   -3.8853    2.3026    2.8989 H   0  0  0  0  0  0  0  0  0  0  0  0
   -2.6648    2.3275    1.5953 H   0  0  0  0  0  0  0  0  0  0  0  0
   -5.6444    1.7365    1.2636 H   0  0  0  0  0  0  0  0  0  0  0  0
   -4.7578    3.1929    0.7130 H   0  0  0  0  0  0  0  0  0  0  0  0
   -1.7429   -2.5442   -5.3769 H   0  0  0  0  0  0  0  0  0  0  0  0
   -0.1838   -3.1897   -4.7800 H   0  0  0  0  0  0  0  0  0  0  0  0
   -2.9812   -4.2085   -4.0777 H   0  0  0  0  0  0  0  0  0  0  0  0
   -1.7722   -5.0775   -5.0311 H   0  0  0  0  0  0  0  0  0  0  0  0
   -0.2754   -5.2269   -3.0781 H   0  0  0  0  0  0  0  0  0  0  0  0
   -1.8631   -5.8418   -2.6055 H   0  0  0  0  0  0  0  0  0  0  0  0
   -2.2994    0.1883    6.5352 H   0  0  0  0  0  0  0  0  0  0  0  0
   -3.7033    0.9285    4.6755 H   0  0  0  0  0  0  0  0  0  0  0  0
   -1.0609   -0.9312    1.8504 H   0  0  0  0  0  0  0  0  0  0  0  0
  1  2  1  0  0  0  0
  2  3  1  0  0  0  0
  2  5  1  0  0  0  0
  3  4  1  0  0  0  0
  5  6  2  0  0  0  0
  5 10  1  0  0  0  0
  6  7  1  0  0  0  0
  7  8  2  0  0  0  0
  8  9  1  0  0  0  0
  9 10  2  0  0  0  0
 10 11  1  0  0  0  0
 11 12  1  0  0  0  0
 11 15  2  0  0  0  0
 12 13  1  0  0  0  0
 12 68  1  0  0  0  0
 13 14  1  0  0  0  0
 15 16  1  0  0  0  0
 15 67  1  0  0  0  0
 16 17  1  0  0  0  0
 17 18  1  0  0  0  0
 17 19  1  0  0  0  0
 17 20  1  0  0  0  0
 20 21  1  0  0  0  0
 21 22  1  0  0  0  0
 22 23  1  0  0  0  0
 22 66  2  0  0  0  0
 23 24  1  0  0  0  0
 23 65  1  0  0  0  0
 24 25  1  0  0  0  0
 25 26  1  0  0  0  0
 25 63  1  0  0  0  0
 26 27  1  0  0  0  0
 26 62  2  0  0  0  0
 27 28  1  0  0  0  0
 27 55  1  0  0  0  0
 28 29  1  0  0  0  0
 29 30  1  0  0  0  0
 29 54  2  0  0  0  0
 30 31  1  0  0  0  0
 30 34  1  0  0  0  0
 31 32  1  0  0  0  0
 31 33  1  0  0  0  0
 34 35  1  0  0  0  0
 34 53  1  0  0  0  0
 35 36  1  0  0  0  0
 35 52  2  0  0  0  0
 36 37  1  0  0  0  0
 36 51  1  0  0  0  0
 36 73  1  0  0  0  0
 37 38  1  0  0  0  0
 38 39  1  0  0  0  0
 39 40  1  0  0  0  0
 39 50  1  0  0  0  0
 40 41  1  0  0  0  0
 40 49  2  0  0  0  0
 42 43  1  0  0  0  0
 43 44  1  0  0  0  0
 43 47  1  0  0  0  0
 43 48  1  0  0  0  0
 44 45  1  0  0  0  0
 44 46  1  0  0  0  0
 50 51  1  0  0  0  0
 55 56  1  0  0  0  0
 56 57  1  0  0  0  0
 56 61  1  0  0  0  0
 57 58  1  0  0  0  0
 58 59  1  0  0  0  0
 58 71  1  0  0  0  0
 59 60  1  0  0  0  0
 60 61  1  0  0  0  0
 63 64  1  0  0  0  0
 64 65  1  0  0  0  0
 67 68  2  0  0  0  0
 67 72  1  0  0  0  0
 68 69  1  0  0  0  0
 69 70  2  0  0  0  0
 70 71  1  0  0  0  0
 71 72  2  0  0  0  0
 41 42  3  0  0  0  0
  1 74  1  0  0  0  0
  1 75  1  0  0  0  0
  1 76  1  0  0  0  0
  2 77  1  0  0  0  0
  4 78  1  0  0  0  0
  4 79  1  0  0  0  0
  4 80  1  0  0  0  0
  7 81  1  0  0  0  0
  8 82  1  0  0  0  0
  9 83  1  0  0  0  0
 13 84  1  0  0  0  0
 13 85  1  0  0  0  0
 14 86  1  0  0  0  0
 14 87  1  0  0  0  0
 14 88  1  0  0  0  0
 16 89  1  0  0  0  0
 16 90  1  0  0  0  0
 18 91  1  0  0  0  0
 18 92  1  0  0  0  0
 18 93  1  0  0  0  0
 19 94  1  0  0  0  0
 19 95  1  0  0  0  0
 19 96  1  0  0  0  0
 20 97  1  0  0  0  0
 20 98  1  0  0  0  0
 23 99  1  0  0  0  0
 24100  1  0  0  0  0
 27101  1  0  0  0  0
 28102  1  0  0  0  0
 30103  1  0  0  0  0
 31104  1  0  0  0  0
 32105  1  0  0  0  0
 32106  1  0  0  0  0
 32107  1  0  0  0  0
 33108  1  0  0  0  0
 33109  1  0  0  0  0
 33110  1  0  0  0  0
 37111  1  0  0  0  0
 37112  1  0  0  0  0
 38113  1  0  0  0  0
 38114  1  0  0  0  0
 45115  1  0  0  0  0
 45116  1  0  0  0  0
 45117  1  0  0  0  0
 46118  1  0  0  0  0
 46119  1  0  0  0  0
 46120  1  0  0  0  0
 47121  1  0  0  0  0
 47122  1  0  0  0  0
 47123  1  0  0  0  0
 48124  1  0  0  0  0
 48125  1  0  0  0  0
 48126  1  0  0  0  0
 50127  1  0  0  0  0
 50128  1  0  0  0  0
 51129  1  0  0  0  0
 51130  1  0  0  0  0
 53131  1  0  0  0  0
 53132  1  0  0  0  0
 53133  1  0  0  0  0
 55134  1  0  0  0  0
 55135  1  0  0  0  0
 56136  1  0  0  0  0
 57137  1  0  0  0  0
 57138  1  0  0  0  0
 59139  1  0  0  0  0
 59140  1  0  0  0  0
 60141  1  0  0  0  0
 60142  1  0  0  0  0
 63143  1  0  0  0  0
 63144  1  0  0  0  0
 64145  1  0  0  0  0
 64146  1  0  0  0  0
 65147  1  0  0  0  0
 65148  1  0  0  0  0
 69149  1  0  0  0  0
 70150  1  0  0  0  0
 72151  1  0  0  0  0
M  END
$$$$
