mol_ETKDG0_34
     RDKit          3D

151157  0  0  0  0  0  0  0  0999 V2000
    2.8797    8.0616   -7.5150 C   0  0  0  0  0  0  0  0  0  0  0  0
    2.8127    6.5328   -7.4362 C   0  0  2  0  0  0  0  0  0  0  0  0
    4.0862    5.9444   -7.7547 O   0  0  0  0  0  0  0  0  0  0  0  0
    4.4731    6.0181   -9.1217 C   0  0  0  0  0  0  0  0  0  0  0  0
    1.6347    5.9528   -8.2165 C   0  0  0  0  0  0  0  0  0  0  0  0
    1.3639    6.5368   -9.4239 N   0  0  0  0  0  0  0  0  0  0  0  0
    0.3274    6.0607  -10.1456 C   0  0  0  0  0  0  0  0  0  0  0  0
   -0.4746    5.0165   -9.7341 C   0  0  0  0  0  0  0  0  0  0  0  0
   -0.1939    4.4195   -8.5104 C   0  0  0  0  0  0  0  0  0  0  0  0
    0.8770    4.8738   -7.7285 C   0  0  0  0  0  0  0  0  0  0  0  0
    1.1314    4.2304   -6.4338 C   0  0  0  0  0  0  0  0  0  0  0  0
    0.3972    4.5068   -5.2957 N   0  0  0  0  0  0  0  0  0  0  0  0
   -0.7263    5.4336   -5.2060 C   0  0  0  0  0  0  0  0  0  0  0  0
   -2.0684    4.7232   -5.1927 C   0  0  0  0  0  0  0  0  0  0  0  0
    2.1193    3.3092   -6.0818 C   0  0  0  0  0  0  0  0  0  0  0  0
    3.1588    2.7236   -7.0095 C   0  0  0  0  0  0  0  0  0  0  0  0
    2.8467    1.3354   -7.6413 C   0  0  0  0  0  0  0  0  0  0  0  0
    3.8800    1.0997   -8.7709 C   0  0  0  0  0  0  0  0  0  0  0  0
    1.4473    1.2802   -8.2735 C   0  0  0  0  0  0  0  0  0  0  0  0
    2.9692    0.1935   -6.6083 C   0  0  0  0  0  0  0  0  0  0  0  0
    4.3204    0.1261   -6.1289 O   0  0  0  0  0  0  0  0  0  0  0  0
    4.5417   -0.7825   -5.1397 C   0  0  0  0  0  0  0  0  0  0  0  0
    6.0073   -0.7218   -4.6990 C   0  0  1  0  0  0  0  0  0  0  0  0
    6.2565   -1.7525   -3.6782 N   0  0  0  0  0  0  0  0  0  0  0  0
    7.5666   -1.6433   -3.1647 N   0  0  0  0  0  0  0  0  0  0  0  0
    7.8951   -1.5318   -1.8085 C   0  0  0  0  0  0  0  0  0  0  0  0
    6.7592   -1.2140   -0.8014 C   0  0  1  0  0  0  0  0  0  0  0  0
    7.0511   -1.8615    0.4768 N   0  0  0  0  0  0  0  0  0  0  0  0
    6.9600   -3.2353    0.5855 C   0  0  0  0  0  0  0  0  0  0  0  0
    7.1278   -3.7606    2.0291 C   0  0  2  0  0  0  0  0  0  0  0  0
    7.6760   -5.2125    2.0606 C   0  0  0  0  0  0  0  0  0  0  0  0
    7.6478   -5.7994    3.4763 C   0  0  0  0  0  0  0  0  0  0  0  0
    9.1214   -5.2498    1.5406 C   0  0  0  0  0  0  0  0  0  0  0  0
    5.8309   -3.5942    2.7389 N   0  0  0  0  0  0  0  0  0  0  0  0
    5.6472   -2.3867    3.4268 C   0  0  0  0  0  0  0  0  0  0  0  0
    4.3978   -2.2210    4.3238 C   0  0  0  0  0  0  0  0  0  0  0  0
    4.4092   -3.2705    5.4527 C   0  0  0  0  0  0  0  0  0  0  0  0
    3.2653   -3.0254    6.4326 C   0  0  0  0  0  0  0  0  0  0  0  0
    3.3487   -1.6633    6.9332 N   0  0  0  0  0  0  0  0  0  0  0  0
    3.9427   -1.4516    8.1757 C   0  0  0  0  0  0  0  0  0  0  0  0
    4.3300   -0.1061    8.5334 C   0  0  0  0  0  0  0  0  0  0  0  0
    4.6910    1.0073    8.8130 C   0  0  0  0  0  0  0  0  0  0  0  0
    5.1800    2.3667    9.1610 C   0  0  0  0  0  0  0  0  0  0  0  0
    6.4255    2.6293    8.3929 N   0  0  0  0  0  0  0  0  0  0  0  0
    6.2256    2.7691    6.9475 C   0  0  0  0  0  0  0  0  0  0  0  0
    7.2270    3.7536    8.8811 C   0  0  0  0  0  0  0  0  0  0  0  0
    5.4387    2.3532   10.6891 C   0  0  0  0  0  0  0  0  0  0  0  0
    4.0510    3.3801    8.8817 C   0  0  0  0  0  0  0  0  0  0  0  0
    4.1812   -2.3495    8.9750 O   0  0  0  0  0  0  0  0  0  0  0  0
    3.2288   -0.6391    5.9031 C   0  0  0  0  0  0  0  0  0  0  0  0
    4.3643   -0.7920    4.9022 C   0  0  0  0  0  0  0  0  0  0  0  0
    6.4952   -1.4881    3.3550 O   0  0  0  0  0  0  0  0  0  0  0  0
    4.6881   -4.3421    2.2141 C   0  0  0  0  0  0  0  0  0  0  0  0
    6.6957   -3.9604   -0.3703 O   0  0  0  0  0  0  0  0  0  0  0  0
    6.6851    0.3167   -0.6377 C   0  0  0  0  0  0  0  0  0  0  0  0
    5.2758    0.8640   -0.3605 C   0  0  1  0  0  0  0  0  0  0  0  0
    4.5195    1.1745   -1.6776 C   0  0  0  0  0  0  0  0  0  0  0  0
    3.1757    1.6887   -1.3582 N   0  0  0  0  0  0  0  0  0  0  0  0
    2.4201    0.7396   -0.5083 C   0  0  0  0  0  0  0  0  0  0  0  0
    3.2331    0.4395    0.7630 C   0  0  0  0  0  0  0  0  0  0  0  0
    4.5442   -0.0666    0.4584 O   0  0  0  0  0  0  0  0  0  0  0  0
    9.0734   -1.5763   -1.4287 O   0  0  0  0  0  0  0  0  0  0  0  0
    8.6075   -1.9155   -4.1604 C   0  0  0  0  0  0  0  0  0  0  0  0
    8.4303   -0.9948   -5.3728 C   0  0  0  0  0  0  0  0  0  0  0  0
    6.9771   -0.9695   -5.8628 C   0  0  0  0  0  0  0  0  0  0  0  0
    3.6762   -1.4705   -4.6159 O   0  0  0  0  0  0  0  0  0  0  0  0
    2.0208    3.1067   -4.6611 C   0  0  0  0  0  0  0  0  0  0  0  0
    0.9290    3.8426   -4.2079 C   0  0  0  0  0  0  0  0  0  0  0  0
    0.5524    3.8509   -2.8594 C   0  0  0  0  0  0  0  0  0  0  0  0
    1.3155    3.1067   -1.9537 C   0  0  0  0  0  0  0  0  0  0  0  0
    2.4322    2.3556   -2.3401 C   0  0  0  0  0  0  0  0  0  0  0  0
    2.7786    2.3792   -3.7049 C   0  0  0  0  0  0  0  0  0  0  0  0
    3.2405   -2.3783    3.6022 F   0  0  0  0  0  0  0  0  0  0  0  0
    3.7137    8.4337   -6.9094 H   0  0  0  0  0  0  0  0  0  0  0  0
    3.0470    8.4225   -8.5351 H   0  0  0  0  0  0  0  0  0  0  0  0
    1.9531    8.5153   -7.1497 H   0  0  0  0  0  0  0  0  0  0  0  0
    2.6614    6.3197   -6.3730 H   0  0  0  0  0  0  0  0  0  0  0  0
    4.4359    7.0395   -9.5061 H   0  0  0  0  0  0  0  0  0  0  0  0
    5.5066    5.6703   -9.1926 H   0  0  0  0  0  0  0  0  0  0  0  0
    3.8551    5.3560   -9.7344 H   0  0  0  0  0  0  0  0  0  0  0  0
    0.1541    6.5610  -11.0940 H   0  0  0  0  0  0  0  0  0  0  0  0
   -1.2973    4.6722  -10.3475 H   0  0  0  0  0  0  0  0  0  0  0  0
   -0.8065    3.5879   -8.1681 H   0  0  0  0  0  0  0  0  0  0  0  0
   -0.5943    6.0277   -4.2943 H   0  0  0  0  0  0  0  0  0  0  0  0
   -0.6757    6.1365   -6.0415 H   0  0  0  0  0  0  0  0  0  0  0  0
   -2.1538    4.0475   -4.3364 H   0  0  0  0  0  0  0  0  0  0  0  0
   -2.8807    5.4532   -5.1287 H   0  0  0  0  0  0  0  0  0  0  0  0
   -2.2149    4.1284   -6.1006 H   0  0  0  0  0  0  0  0  0  0  0  0
    3.3200    3.4361   -7.8269 H   0  0  0  0  0  0  0  0  0  0  0  0
    4.1187    2.6847   -6.4763 H   0  0  0  0  0  0  0  0  0  0  0  0
    4.9089    1.1607   -8.3987 H   0  0  0  0  0  0  0  0  0  0  0  0
    3.7455    0.1125   -9.2283 H   0  0  0  0  0  0  0  0  0  0  0  0
    3.7725    1.8494   -9.5644 H   0  0  0  0  0  0  0  0  0  0  0  0
    0.6563    1.3997   -7.5243 H   0  0  0  0  0  0  0  0  0  0  0  0
    1.3294    2.0569   -9.0356 H   0  0  0  0  0  0  0  0  0  0  0  0
    1.2778    0.3158   -8.7685 H   0  0  0  0  0  0  0  0  0  0  0  0
    2.2779    0.3481   -5.7728 H   0  0  0  0  0  0  0  0  0  0  0  0
    2.7268   -0.7670   -7.0809 H   0  0  0  0  0  0  0  0  0  0  0  0
    6.1671    0.2725   -4.2615 H   0  0  0  0  0  0  0  0  0  0  0  0
    5.5089   -1.8059   -2.9892 H   0  0  0  0  0  0  0  0  0  0  0  0
    5.8112   -1.6269   -1.1457 H   0  0  0  0  0  0  0  0  0  0  0  0
    6.8837   -1.3393    1.3377 H   0  0  0  0  0  0  0  0  0  0  0  0
    7.8794   -3.1289    2.5217 H   0  0  0  0  0  0  0  0  0  0  0  0
    7.0758   -5.8593    1.4104 H   0  0  0  0  0  0  0  0  0  0  0  0
    6.6218   -5.9166    3.8387 H   0  0  0  0  0  0  0  0  0  0  0  0
    8.1108   -6.7931    3.4925 H   0  0  0  0  0  0  0  0  0  0  0  0
    8.1891   -5.1626    4.1833 H   0  0  0  0  0  0  0  0  0  0  0  0
    9.5173   -6.2702    1.5683 H   0  0  0  0  0  0  0  0  0  0  0  0
    9.1828   -4.9000    0.5052 H   0  0  0  0  0  0  0  0  0  0  0  0
    9.7785   -4.6200    2.1521 H   0  0  0  0  0  0  0  0  0  0  0  0
    4.3124   -4.2859    5.0541 H   0  0  0  0  0  0  0  0  0  0  0  0
    5.3688   -3.2294    5.9838 H   0  0  0  0  0  0  0  0  0  0  0  0
    2.2951   -3.1496    5.9378 H   0  0  0  0  0  0  0  0  0  0  0  0
    3.3111   -3.7513    7.2511 H   0  0  0  0  0  0  0  0  0  0  0  0
    5.6771    1.9219    6.5243 H   0  0  0  0  0  0  0  0  0  0  0  0
    5.6951    3.6911    6.6870 H   0  0  0  0  0  0  0  0  0  0  0  0
    7.1930    2.7867    6.4324 H   0  0  0  0  0  0  0  0  0  0  0  0
    7.5756    3.5878    9.9053 H   0  0  0  0  0  0  0  0  0  0  0  0
    8.1399    3.8624    8.2817 H   0  0  0  0  0  0  0  0  0  0  0  0
    6.6838    4.7039    8.8398 H   0  0  0  0  0  0  0  0  0  0  0  0
    4.5542    2.0025   11.2362 H   0  0  0  0  0  0  0  0  0  0  0  0
    6.2627    1.6764   10.9520 H   0  0  0  0  0  0  0  0  0  0  0  0
    5.6765    3.3507   11.0734 H   0  0  0  0  0  0  0  0  0  0  0  0
    3.1673    3.1613    9.4949 H   0  0  0  0  0  0  0  0  0  0  0  0
    4.3610    4.4053    9.1116 H   0  0  0  0  0  0  0  0  0  0  0  0
    3.7180    3.3495    7.8382 H   0  0  0  0  0  0  0  0  0  0  0  0
    2.2586   -0.7726    5.4120 H   0  0  0  0  0  0  0  0  0  0  0  0
    3.2315    0.3655    6.3355 H   0  0  0  0  0  0  0  0  0  0  0  0
    5.3142   -0.5620    5.4003 H   0  0  0  0  0  0  0  0  0  0  0  0
    4.2313   -0.0632    4.0956 H   0  0  0  0  0  0  0  0  0  0  0  0
    3.8637   -4.3804    2.9213 H   0  0  0  0  0  0  0  0  0  0  0  0
    4.3342   -3.8488    1.3045 H   0  0  0  0  0  0  0  0  0  0  0  0
    4.9777   -5.3706    1.9902 H   0  0  0  0  0  0  0  0  0  0  0  0
    7.3294    0.6097    0.2034 H   0  0  0  0  0  0  0  0  0  0  0  0
    7.0991    0.8323   -1.5137 H   0  0  0  0  0  0  0  0  0  0  0  0
    5.3828    1.7989    0.2045 H   0  0  0  0  0  0  0  0  0  0  0  0
    5.0938    1.9181   -2.2439 H   0  0  0  0  0  0  0  0  0  0  0  0
    4.4220    0.2636   -2.2779 H   0  0  0  0  0  0  0  0  0  0  0  0
    1.4416    1.1238   -0.2059 H   0  0  0  0  0  0  0  0  0  0  0  0
    2.2585   -0.1894   -1.0704 H   0  0  0  0  0  0  0  0  0  0  0  0
    3.3370    1.3397    1.3802 H   0  0  0  0  0  0  0  0  0  0  0  0
    2.7187   -0.3181    1.3628 H   0  0  0  0  0  0  0  0  0  0  0  0
    9.6079   -1.7824   -3.7342 H   0  0  0  0  0  0  0  0  0  0  0  0
    8.5112   -2.9677   -4.4592 H   0  0  0  0  0  0  0  0  0  0  0  0
    8.7215    0.0244   -5.0887 H   0  0  0  0  0  0  0  0  0  0  0  0
    9.0973   -1.3091   -6.1831 H   0  0  0  0  0  0  0  0  0  0  0  0
    6.7400   -1.9248   -6.3523 H   0  0  0  0  0  0  0  0  0  0  0  0
    6.8684   -0.1927   -6.6289 H   0  0  0  0  0  0  0  0  0  0  0  0
   -0.2914    4.4336   -2.5042 H   0  0  0  0  0  0  0  0  0  0  0  0
    1.0433    3.1650   -0.9031 H   0  0  0  0  0  0  0  0  0  0  0  0
    3.6418    1.8338   -4.0609 H   0  0  0  0  0  0  0  0  0  0  0  0
  1  2  1  0
  2  3  1  0
  2  5  1  0
  3  4  1  0
  5  6  2  0
  5 10  1  0
  6  7  1  0
  7  8  2  0
  8  9  1  0
  9 10  2  0
 10 11  1  0
 11 12  1  0
 11 15  2  0
 12 13  1  0
 12 68  1  0
 13 14  1  0
 15 16  1  0
 15 67  1  0
 16 17  1  0
 17 18  1  0
 17 19  1  0
 17 20  1  0
 20 21  1  0
 21 22  1  0
 22 23  1  0
 22 66  2  0
 23 24  1  0
 23 65  1  0
 24 25  1  0
 25 26  1  0
 25 63  1  0
 26 27  1  0
 26 62  2  0
 27 28  1  0
 27 55  1  0
 28 29  1  0
 29 30  1  0
 29 54  2  0
 30 31  1  0
 30 34  1  0
 31 32  1  0
 31 33  1  0
 34 35  1  0
 34 53  1  0
 35 36  1  0
 35 52  2  0
 36 37  1  0
 36 51  1  0
 36 73  1  0
 37 38  1  0
 38 39  1  0
 39 40  1  0
 39 50  1  0
 40 41  1  0
 40 49  2  0
 42 43  1  0
 43 44  1  0
 43 47  1  0
 43 48  1  0
 44 45  1  0
 44 46  1  0
 50 51  1  0
 55 56  1  0
 56 57  1  0
 56 61  1  0
 57 58  1  0
 58 59  1  0
 58 71  1  0
 59 60  1  0
 60 61  1  0
 63 64  1  0
 64 65  1  0
 67 68  2  0
 67 72  1  0
 68 69  1  0
 69 70  2  0
 70 71  1  0
 71 72  2  0
  1 74  1  0
  1 75  1  0
  1 76  1  0
  2 77  1  1
  4 78  1  0
  4 79  1  0
  4 80  1  0
  7 81  1  0
  8 82  1  0
  9 83  1  0
 13 84  1  0
 13 85  1  0
 14 86  1  0
 14 87  1  0
 14 88  1  0
 16 89  1  0
 16 90  1  0
 18 91  1  0
 18 92  1  0
 18 93  1  0
 19 94  1  0
 19 95  1  0
 19 96  1  0
 20 97  1  0
 20 98  1  0
 23 99  1  1
 24100  1  0
 27101  1  6
 28102  1  0
 30103  1  1
 31104  1  0
 32105  1  0
 32106  1  0
 32107  1  0
 33108  1  0
 33109  1  0
 33110  1  0
 37111  1  0
 37112  1  0
 38113  1  0
 38114  1  0
 45115  1  0
 45116  1  0
 45117  1  0
 46118  1  0
 46119  1  0
 46120  1  0
 47121  1  0
 47122  1  0
 47123  1  0
 48124  1  0
 48125  1  0
 48126  1  0
 50127  1  0
 50128  1  0
 51129  1  0
 51130  1  0
 53131  1  0
 53132  1  0
 53133  1  0
 55134  1  0
 55135  1  0
 56136  1  1
 57137  1  0
 57138  1  0
 59139  1  0
 59140  1  0
 60141  1  0
 60142  1  0
 63143  1  0
 63144  1  0
 64145  1  0
 64146  1  0
 65147  1  0
 65148  1  0
 69149  1  0
 70150  1  0
 72151  1  0
 41 42  3  0
M  END
$$$$
