 energy: -221.289950028704 gnorm: 0.000389434896 xtb: 6.7.1 (edcfbbe)
          08232517503D

151157  0     0  0            999 V2000
   -2.2036    3.8737    5.4539 C   0  0  0  0  0  0  0  0  0  0  0  0
   -3.1430    2.6611    5.4409 C   0  0  0  0  0  0  0  0  0  0  0  0
   -2.5037    1.4962    4.9447 O   0  0  0  0  0  0  0  0  0  0  0  0
   -1.8807    0.7207    5.9327 C   0  0  0  0  0  0  0  0  0  0  0  0
   -4.3844    2.9820    4.6375 C   0  0  0  0  0  0  0  0  0  0  0  0
   -5.4345    3.2601    5.4004 N   0  0  0  0  0  0  0  0  0  0  0  0
   -6.5670    3.6491    4.8475 C   0  0  0  0  0  0  0  0  0  0  0  0
   -6.7192    3.8042    3.4797 C   0  0  0  0  0  0  0  0  0  0  0  0
   -5.6352    3.5025    2.6774 C   0  0  0  0  0  0  0  0  0  0  0  0
   -4.4367    3.0615    3.2410 C   0  0  0  0  0  0  0  0  0  0  0  0
   -3.3258    2.7414    2.3318 C   0  0  0  0  0  0  0  0  0  0  0  0
   -2.6537    3.7633    1.6982 N   0  0  0  0  0  0  0  0  0  0  0  0
   -2.8335    5.1749    1.9151 C   0  0  0  0  0  0  0  0  0  0  0  0
   -3.5591    5.8470    0.7499 C   0  0  0  0  0  0  0  0  0  0  0  0
   -2.8772    1.5216    1.8770 C   0  0  0  0  0  0  0  0  0  0  0  0
   -3.2841    0.1445    2.2986 C   0  0  0  0  0  0  0  0  0  0  0  0
   -4.4517   -0.5046    1.5209 C   0  0  0  0  0  0  0  0  0  0  0  0
   -4.7291   -1.8823    2.1277 C   0  0  0  0  0  0  0  0  0  0  0  0
   -5.7098    0.3571    1.6376 C   0  0  0  0  0  0  0  0  0  0  0  0
   -4.1341   -0.6367    0.0164 C   0  0  0  0  0  0  0  0  0  0  0  0
   -3.4211   -1.8254   -0.3537 O   0  0  0  0  0  0  0  0  0  0  0  0
   -4.1449   -2.8216   -0.8577 C   0  0  0  0  0  0  0  0  0  0  0  0
   -3.2651   -3.9433   -1.3984 C   0  0  0  0  0  0  0  0  0  0  0  0
   -2.2891   -4.4331   -0.4351 N   0  0  0  0  0  0  0  0  0  0  0  0
   -1.3803   -5.2766   -1.0863 N   0  0  0  0  0  0  0  0  0  0  0  0
   -0.2615   -4.8883   -1.7401 C   0  0  0  0  0  0  0  0  0  0  0  0
    0.1599   -3.4190   -1.5447 C   0  0  0  0  0  0  0  0  0  0  0  0
    1.2240   -3.3718   -0.5618 N   0  0  0  0  0  0  0  0  0  0  0  0
    0.9639   -3.2749    0.7484 C   0  0  0  0  0  0  0  0  0  0  0  0
    2.1973   -3.2830    1.6550 C   0  0  0  0  0  0  0  0  0  0  0  0
    2.4282   -4.6751    2.2632 C   0  0  0  0  0  0  0  0  0  0  0  0
    3.7246   -4.6817    3.0721 C   0  0  0  0  0  0  0  0  0  0  0  0
    2.5070   -5.7242    1.1542 C   0  0  0  0  0  0  0  0  0  0  0  0
    2.0448   -2.2120    2.6428 N   0  0  0  0  0  0  0  0  0  0  0  0
    2.4758   -1.0052    2.2329 C   0  0  0  0  0  0  0  0  0  0  0  0
    2.2803    0.2370    3.1202 C   0  0  0  0  0  0  0  0  0  0  0  0
    3.2251    1.3449    2.6435 C   0  0  0  0  0  0  0  0  0  0  0  0
    2.9900    2.6335    3.4286 C   0  0  0  0  0  0  0  0  0  0  0  0
    1.6042    3.0238    3.3818 N   0  0  0  0  0  0  0  0  0  0  0  0
    1.1385    4.1697    2.8384 C   0  0  0  0  0  0  0  0  0  0  0  0
    2.1036    4.9332    2.0867 C   0  0  0  0  0  0  0  0  0  0  0  0
    2.7219    5.6031    1.2994 C   0  0  0  0  0  0  0  0  0  0  0  0
    3.6027    6.4036    0.4500 C   0  0  0  0  0  0  0  0  0  0  0  0
    4.6296    7.0991    1.2438 N   0  0  0  0  0  0  0  0  0  0  0  0
    4.0866    8.0876    2.1581 C   0  0  0  0  0  0  0  0  0  0  0  0
    5.5280    6.2069    1.9507 C   0  0  0  0  0  0  0  0  0  0  0  0
    4.2731    5.4717   -0.5741 C   0  0  0  0  0  0  0  0  0  0  0  0
    2.7481    7.4252   -0.3170 C   0  0  0  0  0  0  0  0  0  0  0  0
   -0.0192    4.5403    2.9460 O   0  0  0  0  0  0  0  0  0  0  0  0
    0.6947    2.0246    3.8856 C   0  0  0  0  0  0  0  0  0  0  0  0
    0.8367    0.7439    3.0621 C   0  0  0  0  0  0  0  0  0  0  0  0
    3.0287   -0.8585    1.1507 O   0  0  0  0  0  0  0  0  0  0  0  0
    1.2046   -2.4816    3.7893 C   0  0  0  0  0  0  0  0  0  0  0  0
   -0.1730   -3.1765    1.1877 O   0  0  0  0  0  0  0  0  0  0  0  0
    0.6056   -2.8096   -2.8723 C   0  0  0  0  0  0  0  0  0  0  0  0
    1.0170   -1.3313   -2.7746 C   0  0  0  0  0  0  0  0  0  0  0  0
    0.2627   -0.5889   -1.6695 C   0  0  0  0  0  0  0  0  0  0  0  0
    0.6686    0.8006   -1.6024 N   0  0  0  0  0  0  0  0  0  0  0  0
    2.1121    0.8739   -1.4074 C   0  0  0  0  0  0  0  0  0  0  0  0
    2.8196    0.0928   -2.5144 C   0  0  0  0  0  0  0  0  0  0  0  0
    2.4105   -1.2556   -2.5445 O   0  0  0  0  0  0  0  0  0  0  0  0
    0.4258   -5.6672   -2.3748 O   0  0  0  0  0  0  0  0  0  0  0  0
   -2.0292   -6.5291   -1.4296 C   0  0  0  0  0  0  0  0  0  0  0  0
   -3.1742   -6.2339   -2.4038 C   0  0  0  0  0  0  0  0  0  0  0  0
   -4.0952   -5.1590   -1.8253 C   0  0  0  0  0  0  0  0  0  0  0  0
   -5.3423   -2.8140   -0.9702 O   0  0  0  0  0  0  0  0  0  0  0  0
   -1.8516    1.8136    0.9301 C   0  0  0  0  0  0  0  0  0  0  0  0
   -1.7303    3.2181    0.8538 C   0  0  0  0  0  0  0  0  0  0  0  0
   -0.7778    3.8009    0.0233 C   0  0  0  0  0  0  0  0  0  0  0  0
    0.0132    2.9760   -0.7434 C   0  0  0  0  0  0  0  0  0  0  0  0
   -0.1099    1.5736   -0.7060 C   0  0  0  0  0  0  0  0  0  0  0  0
   -1.0302    0.9966    0.1527 C   0  0  0  0  0  0  0  0  0  0  0  0
    2.6163   -0.0639    4.4438 F   0  0  0  0  0  0  0  0  0  0  0  0
   -1.3757    3.6984    6.1374 H   0  0  0  0  0  0  0  0  0  0  0  0
   -1.8009    4.0611    4.4621 H   0  0  0  0  0  0  0  0  0  0  0  0
   -2.7496    4.7509    5.7912 H   0  0  0  0  0  0  0  0  0  0  0  0
   -3.4931    2.4752    6.4677 H   0  0  0  0  0  0  0  0  0  0  0  0
   -2.5984    0.3981    6.6975 H   0  0  0  0  0  0  0  0  0  0  0  0
   -1.4799   -0.1564    5.4273 H   0  0  0  0  0  0  0  0  0  0  0  0
   -1.0632    1.2582    6.4263 H   0  0  0  0  0  0  0  0  0  0  0  0
   -7.3770    3.8508    5.5362 H   0  0  0  0  0  0  0  0  0  0  0  0
   -7.6518    4.1437    3.0568 H   0  0  0  0  0  0  0  0  0  0  0  0
   -5.7088    3.6018    1.6036 H   0  0  0  0  0  0  0  0  0  0  0  0
   -3.4035    5.3145    2.8369 H   0  0  0  0  0  0  0  0  0  0  0  0
   -1.8451    5.6223    2.0498 H   0  0  0  0  0  0  0  0  0  0  0  0
   -3.6182    6.9186    0.9220 H   0  0  0  0  0  0  0  0  0  0  0  0
   -3.0269    5.6709   -0.1814 H   0  0  0  0  0  0  0  0  0  0  0  0
   -4.5695    5.4585    0.6466 H   0  0  0  0  0  0  0  0  0  0  0  0
   -2.4139   -0.5085    2.2004 H   0  0  0  0  0  0  0  0  0  0  0  0
   -3.5629    0.1771    3.3521 H   0  0  0  0  0  0  0  0  0  0  0  0
   -5.0351   -1.7734    3.1653 H   0  0  0  0  0  0  0  0  0  0  0  0
   -5.5256   -2.3857    1.5842 H   0  0  0  0  0  0  0  0  0  0  0  0
   -3.8386   -2.5069    2.0951 H   0  0  0  0  0  0  0  0  0  0  0  0
   -5.9134    0.5893    2.6798 H   0  0  0  0  0  0  0  0  0  0  0  0
   -5.5792    1.2882    1.0937 H   0  0  0  0  0  0  0  0  0  0  0  0
   -6.5691   -0.1677    1.2255 H   0  0  0  0  0  0  0  0  0  0  0  0
   -5.0716   -0.6350   -0.5487 H   0  0  0  0  0  0  0  0  0  0  0  0
   -3.5092    0.1971   -0.3091 H   0  0  0  0  0  0  0  0  0  0  0  0
   -2.7682   -3.5131   -2.2926 H   0  0  0  0  0  0  0  0  0  0  0  0
   -1.8204   -3.7262    0.1285 H   0  0  0  0  0  0  0  0  0  0  0  0
   -0.6815   -2.8477   -1.1466 H   0  0  0  0  0  0  0  0  0  0  0  0
    2.1684   -3.3732   -0.9146 H   0  0  0  0  0  0  0  0  0  0  0  0
    3.0746   -3.0157    1.0564 H   0  0  0  0  0  0  0  0  0  0  0  0
    1.5829   -4.9303    2.9079 H   0  0  0  0  0  0  0  0  0  0  0  0
    3.7363   -3.8938    3.8205 H   0  0  0  0  0  0  0  0  0  0  0  0
    3.8482   -5.6375    3.5755 H   0  0  0  0  0  0  0  0  0  0  0  0
    4.5756   -4.5299    2.4116 H   0  0  0  0  0  0  0  0  0  0  0  0
    2.7243   -6.6975    1.5874 H   0  0  0  0  0  0  0  0  0  0  0  0
    1.5698   -5.8004    0.6087 H   0  0  0  0  0  0  0  0  0  0  0  0
    3.2992   -5.4830    0.4488 H   0  0  0  0  0  0  0  0  0  0  0  0
    4.2574    1.0152    2.7676 H   0  0  0  0  0  0  0  0  0  0  0  0
    3.0435    1.5137    1.5827 H   0  0  0  0  0  0  0  0  0  0  0  0
    3.2686    2.4712    4.4783 H   0  0  0  0  0  0  0  0  0  0  0  0
    3.6073    3.4363    3.0210 H   0  0  0  0  0  0  0  0  0  0  0  0
    3.3759    7.6599    2.8804 H   0  0  0  0  0  0  0  0  0  0  0  0
    4.9131    8.5322    2.7105 H   0  0  0  0  0  0  0  0  0  0  0  0
    3.5942    8.8816    1.6030 H   0  0  0  0  0  0  0  0  0  0  0  0
    5.0152    5.5809    2.6973 H   0  0  0  0  0  0  0  0  0  0  0  0
    6.0516    5.5633    1.2491 H   0  0  0  0  0  0  0  0  0  0  0  0
    6.2727    6.8119    2.4663 H   0  0  0  0  0  0  0  0  0  0  0  0
    4.6956    4.5893   -0.1007 H   0  0  0  0  0  0  0  0  0  0  0  0
    3.5363    5.1367   -1.2999 H   0  0  0  0  0  0  0  0  0  0  0  0
    5.0590    6.0147   -1.0923 H   0  0  0  0  0  0  0  0  0  0  0  0
    2.0779    7.9633    0.3476 H   0  0  0  0  0  0  0  0  0  0  0  0
    3.3989    8.1317   -0.8255 H   0  0  0  0  0  0  0  0  0  0  0  0
    2.1391    6.9094   -1.0554 H   0  0  0  0  0  0  0  0  0  0  0  0
    0.9283    1.8172    4.9362 H   0  0  0  0  0  0  0  0  0  0  0  0
   -0.3251    2.4007    3.8056 H   0  0  0  0  0  0  0  0  0  0  0  0
    0.5900    0.9531    2.0191 H   0  0  0  0  0  0  0  0  0  0  0  0
    0.1323    0.0012    3.4316 H   0  0  0  0  0  0  0  0  0  0  0  0
    1.6326   -3.2886    4.3835 H   0  0  0  0  0  0  0  0  0  0  0  0
    1.1217   -1.6128    4.4292 H   0  0  0  0  0  0  0  0  0  0  0  0
    0.2119   -2.7786    3.4439 H   0  0  0  0  0  0  0  0  0  0  0  0
    1.4516   -3.3789   -3.2610 H   0  0  0  0  0  0  0  0  0  0  0  0
   -0.2180   -2.9061   -3.5817 H   0  0  0  0  0  0  0  0  0  0  0  0
    0.8012   -0.8348   -3.7373 H   0  0  0  0  0  0  0  0  0  0  0  0
   -0.8090   -0.6264   -1.8786 H   0  0  0  0  0  0  0  0  0  0  0  0
    0.4826   -1.0824   -0.7125 H   0  0  0  0  0  0  0  0  0  0  0  0
    2.4324    1.9158   -1.4297 H   0  0  0  0  0  0  0  0  0  0  0  0
    2.4002    0.4242   -0.4453 H   0  0  0  0  0  0  0  0  0  0  0  0
    2.6127    0.5604   -3.4899 H   0  0  0  0  0  0  0  0  0  0  0  0
    3.8955    0.0796   -2.3351 H   0  0  0  0  0  0  0  0  0  0  0  0
   -1.2847   -7.1864   -1.8783 H   0  0  0  0  0  0  0  0  0  0  0  0
   -2.4142   -6.9675   -0.5069 H   0  0  0  0  0  0  0  0  0  0  0  0
   -2.7494   -5.8853   -3.3482 H   0  0  0  0  0  0  0  0  0  0  0  0
   -3.7365   -7.1465   -2.5996 H   0  0  0  0  0  0  0  0  0  0  0  0
   -4.6081   -5.5425   -0.9428 H   0  0  0  0  0  0  0  0  0  0  0  0
   -4.8474   -4.8580   -2.5538 H   0  0  0  0  0  0  0  0  0  0  0  0
   -0.6500    4.8715   -0.0199 H   0  0  0  0  0  0  0  0  0  0  0  0
    0.7404    3.4121   -1.4116 H   0  0  0  0  0  0  0  0  0  0  0  0
   -1.1372   -0.0712    0.2476 H   0  0  0  0  0  0  0  0  0  0  0  0
  1  2  1  0  0  0  0
  2  3  1  0  0  0  0
  2  5  1  0  0  0  0
  3  4  1  0  0  0  0
  5  6  2  0  0  0  0
  5 10  1  0  0  0  0
  6  7  1  0  0  0  0
  7  8  2  0  0  0  0
  8  9  1  0  0  0  0
  9 10  2  0  0  0  0
 10 11  1  0  0  0  0
 11 12  1  0  0  0  0
 11 15  2  0  0  0  0
 12 13  1  0  0  0  0
 12 68  1  0  0  0  0
 13 14  1  0  0  0  0
 15 16  1  0  0  0  0
 15 67  1  0  0  0  0
 16 17  1  0  0  0  0
 17 18  1  0  0  0  0
 17 19  1  0  0  0  0
 17 20  1  0  0  0  0
 20 21  1  0  0  0  0
 21 22  1  0  0  0  0
 22 23  1  0  0  0  0
 22 66  2  0  0  0  0
 23 24  1  0  0  0  0
 23 65  1  0  0  0  0
 24 25  1  0  0  0  0
 25 26  1  0  0  0  0
 25 63  1  0  0  0  0
 26 27  1  0  0  0  0
 26 62  2  0  0  0  0
 27 28  1  0  0  0  0
 27 55  1  0  0  0  0
 28 29  1  0  0  0  0
 29 30  1  0  0  0  0
 29 54  2  0  0  0  0
 30 31  1  0  0  0  0
 30 34  1  0  0  0  0
 31 32  1  0  0  0  0
 31 33  1  0  0  0  0
 34 35  1  0  0  0  0
 34 53  1  0  0  0  0
 35 36  1  0  0  0  0
 35 52  2  0  0  0  0
 36 37  1  0  0  0  0
 36 51  1  0  0  0  0
 36 73  1  0  0  0  0
 37 38  1  0  0  0  0
 38 39  1  0  0  0  0
 39 40  1  0  0  0  0
 39 50  1  0  0  0  0
 40 41  1  0  0  0  0
 40 49  2  0  0  0  0
 42 43  1  0  0  0  0
 43 44  1  0  0  0  0
 43 47  1  0  0  0  0
 43 48  1  0  0  0  0
 44 45  1  0  0  0  0
 44 46  1  0  0  0  0
 50 51  1  0  0  0  0
 55 56  1  0  0  0  0
 56 57  1  0  0  0  0
 56 61  1  0  0  0  0
 57 58  1  0  0  0  0
 58 59  1  0  0  0  0
 58 71  1  0  0  0  0
 59 60  1  0  0  0  0
 60 61  1  0  0  0  0
 63 64  1  0  0  0  0
 64 65  1  0  0  0  0
 67 68  2  0  0  0  0
 67 72  1  0  0  0  0
 68 69  1  0  0  0  0
 69 70  2  0  0  0  0
 70 71  1  0  0  0  0
 71 72  2  0  0  0  0
 41 42  3  0  0  0  0
  1 74  1  0  0  0  0
  1 75  1  0  0  0  0
  1 76  1  0  0  0  0
  2 77  1  0  0  0  0
  4 78  1  0  0  0  0
  4 79  1  0  0  0  0
  4 80  1  0  0  0  0
  7 81  1  0  0  0  0
  8 82  1  0  0  0  0
  9 83  1  0  0  0  0
 13 84  1  0  0  0  0
 13 85  1  0  0  0  0
 14 86  1  0  0  0  0
 14 87  1  0  0  0  0
 14 88  1  0  0  0  0
 16 89  1  0  0  0  0
 16 90  1  0  0  0  0
 18 91  1  0  0  0  0
 18 92  1  0  0  0  0
 18 93  1  0  0  0  0
 19 94  1  0  0  0  0
 19 95  1  0  0  0  0
 19 96  1  0  0  0  0
 20 97  1  0  0  0  0
 20 98  1  0  0  0  0
 23 99  1  0  0  0  0
 24100  1  0  0  0  0
 27101  1  0  0  0  0
 28102  1  0  0  0  0
 30103  1  0  0  0  0
 31104  1  0  0  0  0
 32105  1  0  0  0  0
 32106  1  0  0  0  0
 32107  1  0  0  0  0
 33108  1  0  0  0  0
 33109  1  0  0  0  0
 33110  1  0  0  0  0
 37111  1  0  0  0  0
 37112  1  0  0  0  0
 38113  1  0  0  0  0
 38114  1  0  0  0  0
 45115  1  0  0  0  0
 45116  1  0  0  0  0
 45117  1  0  0  0  0
 46118  1  0  0  0  0
 46119  1  0  0  0  0
 46120  1  0  0  0  0
 47121  1  0  0  0  0
 47122  1  0  0  0  0
 47123  1  0  0  0  0
 48124  1  0  0  0  0
 48125  1  0  0  0  0
 48126  1  0  0  0  0
 50127  1  0  0  0  0
 50128  1  0  0  0  0
 51129  1  0  0  0  0
 51130  1  0  0  0  0
 53131  1  0  0  0  0
 53132  1  0  0  0  0
 53133  1  0  0  0  0
 55134  1  0  0  0  0
 55135  1  0  0  0  0
 56136  1  0  0  0  0
 57137  1  0  0  0  0
 57138  1  0  0  0  0
 59139  1  0  0  0  0
 59140  1  0  0  0  0
 60141  1  0  0  0  0
 60142  1  0  0  0  0
 63143  1  0  0  0  0
 63144  1  0  0  0  0
 64145  1  0  0  0  0
 64146  1  0  0  0  0
 65147  1  0  0  0  0
 65148  1  0  0  0  0
 69149  1  0  0  0  0
 70150  1  0  0  0  0
 72151  1  0  0  0  0
M  END
$$$$
