mol_ETKDG5_28
     RDKit          3D

151157  0  0  0  0  0  0  0  0999 V2000
    3.8588    8.0802   -7.8569 C   0  0  0  0  0  0  0  0  0  0  0  0
    3.4483    6.6419   -7.5288 C   0  0  2  0  0  0  0  0  0  0  0  0
    4.5763    5.7712   -7.7071 O   0  0  0  0  0  0  0  0  0  0  0  0
    5.4149    5.7114   -6.5630 C   0  0  0  0  0  0  0  0  0  0  0  0
    2.2970    6.1548   -8.4097 C   0  0  0  0  0  0  0  0  0  0  0  0
    2.1769    6.7234   -9.6456 N   0  0  0  0  0  0  0  0  0  0  0  0
    1.1759    6.3023  -10.4453 C   0  0  0  0  0  0  0  0  0  0  0  0
    0.2519    5.3426  -10.0780 C   0  0  0  0  0  0  0  0  0  0  0  0
    0.3699    4.7703   -8.8174 C   0  0  0  0  0  0  0  0  0  0  0  0
    1.4091    5.1560   -7.9647 C   0  0  0  0  0  0  0  0  0  0  0  0
    1.5384    4.5118   -6.6526 C   0  0  0  0  0  0  0  0  0  0  0  0
    0.8412    4.9103   -5.5297 N   0  0  0  0  0  0  0  0  0  0  0  0
   -0.2103    5.9199   -5.4927 C   0  0  0  0  0  0  0  0  0  0  0  0
   -1.5971    5.3022   -5.5256 C   0  0  0  0  0  0  0  0  0  0  0  0
    2.3829    3.4681   -6.2726 C   0  0  0  0  0  0  0  0  0  0  0  0
    3.2876    2.6839   -7.1951 C   0  0  0  0  0  0  0  0  0  0  0  0
    2.7615    1.2994   -7.6799 C   0  0  0  0  0  0  0  0  0  0  0  0
    1.3217    1.3686   -8.2133 C   0  0  0  0  0  0  0  0  0  0  0  0
    3.6714    0.8419   -8.8459 C   0  0  0  0  0  0  0  0  0  0  0  0
    2.8197    0.2369   -6.5600 C   0  0  0  0  0  0  0  0  0  0  0  0
    4.1807    0.0773   -6.1320 O   0  0  0  0  0  0  0  0  0  0  0  0
    4.3773   -0.8297   -5.1369 C   0  0  0  0  0  0  0  0  0  0  0  0
    5.8592   -0.8509   -4.7523 C   0  0  1  0  0  0  0  0  0  0  0  0
    6.0847   -1.8386   -3.6843 N   0  0  0  0  0  0  0  0  0  0  0  0
    7.4229   -1.7971   -3.2336 N   0  0  0  0  0  0  0  0  0  0  0  0
    7.8222   -1.6543   -1.8984 C   0  0  0  0  0  0  0  0  0  0  0  0
    6.7641   -1.1797   -0.8660 C   0  0  1  0  0  0  0  0  0  0  0  0
    7.0838   -1.7286    0.4505 N   0  0  0  0  0  0  0  0  0  0  0  0
    6.9350   -3.0793    0.6942 C   0  0  0  0  0  0  0  0  0  0  0  0
    7.1511   -3.4650    2.1751 C   0  0  2  0  0  0  0  0  0  0  0  0
    7.7463   -4.8894    2.3287 C   0  0  0  0  0  0  0  0  0  0  0  0
    7.8084   -5.3123    3.8015 C   0  0  0  0  0  0  0  0  0  0  0  0
    9.1632   -4.9445    1.7375 C   0  0  0  0  0  0  0  0  0  0  0  0
    5.8661   -3.2671    2.8962 N   0  0  0  0  0  0  0  0  0  0  0  0
    5.6497   -1.9952    3.4443 C   0  0  0  0  0  0  0  0  0  0  0  0
    4.4019   -1.7721    4.3321 C   0  0  0  0  0  0  0  0  0  0  0  0
    4.4937   -2.6490    5.5958 C   0  0  0  0  0  0  0  0  0  0  0  0
    3.3470   -2.3410    6.5555 C   0  0  0  0  0  0  0  0  0  0  0  0
    3.3445   -0.9189    6.8570 N   0  0  0  0  0  0  0  0  0  0  0  0
    3.9075   -0.4949    8.0581 C   0  0  0  0  0  0  0  0  0  0  0  0
    4.2169    0.9080    8.2224 C   0  0  0  0  0  0  0  0  0  0  0  0
    4.5329    2.0605    8.3576 C   0  0  0  0  0  0  0  0  0  0  0  0
    4.9681    3.4699    8.5370 C   0  0  0  0  0  0  0  0  0  0  0  0
    6.0253    3.7684    7.5334 N   0  0  0  0  0  0  0  0  0  0  0  0
    5.5528    3.7794    6.1449 C   0  0  0  0  0  0  0  0  0  0  0  0
    6.7925    4.9875    7.7921 C   0  0  0  0  0  0  0  0  0  0  0  0
    3.7313    4.3860    8.4265 C   0  0  0  0  0  0  0  0  0  0  0  0
    5.5119    3.5710    9.9843 C   0  0  0  0  0  0  0  0  0  0  0  0
    4.1844   -1.2521    8.9808 O   0  0  0  0  0  0  0  0  0  0  0  0
    3.1517   -0.0582    5.6966 C   0  0  0  0  0  0  0  0  0  0  0  0
    4.2852   -0.2808    4.7052 C   0  0  0  0  0  0  0  0  0  0  0  0
    6.4712   -1.0876    3.2674 O   0  0  0  0  0  0  0  0  0  0  0  0
    4.7347   -4.0960    2.4785 C   0  0  0  0  0  0  0  0  0  0  0  0
    6.5789   -3.8808   -0.1675 O   0  0  0  0  0  0  0  0  0  0  0  0
    6.8063    0.3608   -0.8314 C   0  0  0  0  0  0  0  0  0  0  0  0
    5.4633    1.0425   -0.5247 C   0  0  1  0  0  0  0  0  0  0  0  0
    4.7048    1.3976   -1.8264 C   0  0  0  0  0  0  0  0  0  0  0  0
    3.4309    2.0588   -1.4864 N   0  0  0  0  0  0  0  0  0  0  0  0
    2.6047    1.2166   -0.5908 C   0  0  0  0  0  0  0  0  0  0  0  0
    3.4232    0.8474    0.6600 C   0  0  0  0  0  0  0  0  0  0  0  0
    4.6650    0.2049    0.3291 O   0  0  0  0  0  0  0  0  0  0  0  0
    9.0094   -1.7792   -1.5661 O   0  0  0  0  0  0  0  0  0  0  0  0
    8.3974   -2.1880   -4.2590 C   0  0  0  0  0  0  0  0  0  0  0  0
    8.2250   -1.3205   -5.5089 C   0  0  0  0  0  0  0  0  0  0  0  0
    6.7553   -1.2275   -5.9397 C   0  0  0  0  0  0  0  0  0  0  0  0
    3.4885   -1.4634   -4.5799 O   0  0  0  0  0  0  0  0  0  0  0  0
    2.3114    3.3739   -4.8412 C   0  0  0  0  0  0  0  0  0  0  0  0
    1.3272    4.2617   -4.4112 C   0  0  0  0  0  0  0  0  0  0  0  0
    0.9963    4.3964   -3.0567 C   0  0  0  0  0  0  0  0  0  0  0  0
    1.7102    3.6337   -2.1240 C   0  0  0  0  0  0  0  0  0  0  0  0
    2.7239    2.7396   -2.4890 C   0  0  0  0  0  0  0  0  0  0  0  0
    3.0144    2.6269   -3.8611 C   0  0  0  0  0  0  0  0  0  0  0  0
    3.2484   -2.0994    3.6643 F   0  0  0  0  0  0  0  0  0  0  0  0
    4.6094    8.4436   -7.1483 H   0  0  0  0  0  0  0  0  0  0  0  0
    4.3146    8.1481   -8.8515 H   0  0  0  0  0  0  0  0  0  0  0  0
    3.0018    8.7598   -7.8179 H   0  0  0  0  0  0  0  0  0  0  0  0
    3.1191    6.6302   -6.4828 H   0  0  0  0  0  0  0  0  0  0  0  0
    4.8605    5.3494   -5.6931 H   0  0  0  0  0  0  0  0  0  0  0  0
    6.2257    5.0071   -6.7702 H   0  0  0  0  0  0  0  0  0  0  0  0
    5.8567    6.6882   -6.3473 H   0  0  0  0  0  0  0  0  0  0  0  0
    1.1373    6.7727  -11.4227 H   0  0  0  0  0  0  0  0  0  0  0  0
   -0.5341    5.0409  -10.7597 H   0  0  0  0  0  0  0  0  0  0  0  0
   -0.3383    4.0049   -8.5085 H   0  0  0  0  0  0  0  0  0  0  0  0
   -0.0713    6.5155   -4.5841 H   0  0  0  0  0  0  0  0  0  0  0  0
   -0.0748    6.6053   -6.3340 H   0  0  0  0  0  0  0  0  0  0  0  0
   -1.7443    4.6078   -4.6915 H   0  0  0  0  0  0  0  0  0  0  0  0
   -2.3622    6.0817   -5.4585 H   0  0  0  0  0  0  0  0  0  0  0  0
   -1.7598    4.7445   -6.4525 H   0  0  0  0  0  0  0  0  0  0  0  0
    3.4906    3.3007   -8.0798 H   0  0  0  0  0  0  0  0  0  0  0  0
    4.2652    2.5667   -6.7086 H   0  0  0  0  0  0  0  0  0  0  0  0
    0.6105    1.6676   -7.4369 H   0  0  0  0  0  0  0  0  0  0  0  0
    1.2438    2.0729   -9.0470 H   0  0  0  0  0  0  0  0  0  0  0  0
    0.9937    0.3910   -8.5879 H   0  0  0  0  0  0  0  0  0  0  0  0
    4.7246    0.8070   -8.5477 H   0  0  0  0  0  0  0  0  0  0  0  0
    3.3899   -0.1568   -9.1992 H   0  0  0  0  0  0  0  0  0  0  0  0
    3.5942    1.5273   -9.6987 H   0  0  0  0  0  0  0  0  0  0  0  0
    2.1915    0.5269   -5.7119 H   0  0  0  0  0  0  0  0  0  0  0  0
    2.4586   -0.7285   -6.9382 H   0  0  0  0  0  0  0  0  0  0  0  0
    6.1053    0.1510   -4.3785 H   0  0  0  0  0  0  0  0  0  0  0  0
    5.3693   -1.7941   -2.9594 H   0  0  0  0  0  0  0  0  0  0  0  0
    5.7741   -1.5559   -1.1257 H   0  0  0  0  0  0  0  0  0  0  0  0
    6.9610   -1.1258    1.2650 H   0  0  0  0  0  0  0  0  0  0  0  0
    7.8936   -2.7706    2.5932 H   0  0  0  0  0  0  0  0  0  0  0  0
    7.1375   -5.6211    1.7859 H   0  0  0  0  0  0  0  0  0  0  0  0
    6.8077   -5.3968    4.2359 H   0  0  0  0  0  0  0  0  0  0  0  0
    8.2905   -6.2915    3.9061 H   0  0  0  0  0  0  0  0  0  0  0  0
    8.3777   -4.5910    4.3973 H   0  0  0  0  0  0  0  0  0  0  0  0
    9.5993   -5.9429    1.8605 H   0  0  0  0  0  0  0  0  0  0  0  0
    9.1577   -4.7181    0.6668 H   0  0  0  0  0  0  0  0  0  0  0  0
    9.8275   -4.2253    2.2311 H   0  0  0  0  0  0  0  0  0  0  0  0
    4.4578   -3.7137    5.3464 H   0  0  0  0  0  0  0  0  0  0  0  0
    5.4549   -2.4733    6.0966 H   0  0  0  0  0  0  0  0  0  0  0  0
    2.3815   -2.5963    6.1029 H   0  0  0  0  0  0  0  0  0  0  0  0
    3.4520   -2.9399    7.4661 H   0  0  0  0  0  0  0  0  0  0  0  0
    5.0020    2.8688    5.8880 H   0  0  0  0  0  0  0  0  0  0  0  0
    4.9177    4.6456    5.9257 H   0  0  0  0  0  0  0  0  0  0  0  0
    6.4076    3.8137    5.4588 H   0  0  0  0  0  0  0  0  0  0  0  0
    7.3445    4.9259    8.7362 H   0  0  0  0  0  0  0  0  0  0  0  0
    7.5600    5.1291    7.0207 H   0  0  0  0  0  0  0  0  0  0  0  0
    6.1637    5.8846    7.8055 H   0  0  0  0  0  0  0  0  0  0  0  0
    2.9914    4.1405    9.1993 H   0  0  0  0  0  0  0  0  0  0  0  0
    3.9939    5.4411    8.5542 H   0  0  0  0  0  0  0  0  0  0  0  0
    3.2196    4.2748    7.4645 H   0  0  0  0  0  0  0  0  0  0  0  0
    4.7813    3.1888   10.7100 H   0  0  0  0  0  0  0  0  0  0  0  0
    6.4248    2.9753   10.1116 H   0  0  0  0  0  0  0  0  0  0  0  0
    5.7306    4.6046   10.2727 H   0  0  0  0  0  0  0  0  0  0  0  0
    2.1868   -0.3192    5.2459 H   0  0  0  0  0  0  0  0  0  0  0  0
    3.0955    0.9949    5.9832 H   0  0  0  0  0  0  0  0  0  0  0  0
    5.2245    0.0759    5.1460 H   0  0  0  0  0  0  0  0  0  0  0  0
    4.0965    0.3154    3.8058 H   0  0  0  0  0  0  0  0  0  0  0  0
    3.9799   -4.1658    3.2611 H   0  0  0  0  0  0  0  0  0  0  0  0
    4.2755   -3.6458    1.5923 H   0  0  0  0  0  0  0  0  0  0  0  0
    5.0604   -5.1129    2.2501 H   0  0  0  0  0  0  0  0  0  0  0  0
    7.5217    0.6715   -0.0562 H   0  0  0  0  0  0  0  0  0  0  0  0
    7.2091    0.7710   -1.7665 H   0  0  0  0  0  0  0  0  0  0  0  0
    5.6752    1.9733    0.0177 H   0  0  0  0  0  0  0  0  0  0  0  0
    5.3362    2.0627   -2.4278 H   0  0  0  0  0  0  0  0  0  0  0  0
    4.4959    0.4869   -2.3957 H   0  0  0  0  0  0  0  0  0  0  0  0
    1.6878    1.7175   -0.2654 H   0  0  0  0  0  0  0  0  0  0  0  0
    2.3213    0.3025   -1.1272 H   0  0  0  0  0  0  0  0  0  0  0  0
    3.6365    1.7379    1.2627 H   0  0  0  0  0  0  0  0  0  0  0  0
    2.8498    0.1540    1.2842 H   0  0  0  0  0  0  0  0  0  0  0  0
    9.4217   -2.0968   -3.8854 H   0  0  0  0  0  0  0  0  0  0  0  0
    8.2246   -3.2455   -4.4939 H   0  0  0  0  0  0  0  0  0  0  0  0
    8.5877   -0.3085   -5.2899 H   0  0  0  0  0  0  0  0  0  0  0  0
    8.8361   -1.7127   -6.3279 H   0  0  0  0  0  0  0  0  0  0  0  0
    6.4352   -2.1882   -6.3632 H   0  0  0  0  0  0  0  0  0  0  0  0
    6.6615   -0.4886   -6.7442 H   0  0  0  0  0  0  0  0  0  0  0  0
    0.2326    5.0887   -2.7194 H   0  0  0  0  0  0  0  0  0  0  0  0
    1.4832    3.7882   -1.0705 H   0  0  0  0  0  0  0  0  0  0  0  0
    3.7954    1.9633   -4.2070 H   0  0  0  0  0  0  0  0  0  0  0  0
  1  2  1  0
  2  3  1  0
  2  5  1  0
  3  4  1  0
  5  6  2  0
  5 10  1  0
  6  7  1  0
  7  8  2  0
  8  9  1  0
  9 10  2  0
 10 11  1  0
 11 12  1  0
 11 15  2  0
 12 13  1  0
 12 68  1  0
 13 14  1  0
 15 16  1  0
 15 67  1  0
 16 17  1  0
 17 18  1  0
 17 19  1  0
 17 20  1  0
 20 21  1  0
 21 22  1  0
 22 23  1  0
 22 66  2  0
 23 24  1  0
 23 65  1  0
 24 25  1  0
 25 26  1  0
 25 63  1  0
 26 27  1  0
 26 62  2  0
 27 28  1  0
 27 55  1  0
 28 29  1  0
 29 30  1  0
 29 54  2  0
 30 31  1  0
 30 34  1  0
 31 32  1  0
 31 33  1  0
 34 35  1  0
 34 53  1  0
 35 36  1  0
 35 52  2  0
 36 37  1  0
 36 51  1  0
 36 73  1  0
 37 38  1  0
 38 39  1  0
 39 40  1  0
 39 50  1  0
 40 41  1  0
 40 49  2  0
 42 43  1  0
 43 44  1  0
 43 47  1  0
 43 48  1  0
 44 45  1  0
 44 46  1  0
 50 51  1  0
 55 56  1  0
 56 57  1  0
 56 61  1  0
 57 58  1  0
 58 59  1  0
 58 71  1  0
 59 60  1  0
 60 61  1  0
 63 64  1  0
 64 65  1  0
 67 68  2  0
 67 72  1  0
 68 69  1  0
 69 70  2  0
 70 71  1  0
 71 72  2  0
  1 74  1  0
  1 75  1  0
  1 76  1  0
  2 77  1  1
  4 78  1  0
  4 79  1  0
  4 80  1  0
  7 81  1  0
  8 82  1  0
  9 83  1  0
 13 84  1  0
 13 85  1  0
 14 86  1  0
 14 87  1  0
 14 88  1  0
 16 89  1  0
 16 90  1  0
 18 91  1  0
 18 92  1  0
 18 93  1  0
 19 94  1  0
 19 95  1  0
 19 96  1  0
 20 97  1  0
 20 98  1  0
 23 99  1  1
 24100  1  0
 27101  1  6
 28102  1  0
 30103  1  1
 31104  1  0
 32105  1  0
 32106  1  0
 32107  1  0
 33108  1  0
 33109  1  0
 33110  1  0
 37111  1  0
 37112  1  0
 38113  1  0
 38114  1  0
 45115  1  0
 45116  1  0
 45117  1  0
 46118  1  0
 46119  1  0
 46120  1  0
 47121  1  0
 47122  1  0
 47123  1  0
 48124  1  0
 48125  1  0
 48126  1  0
 50127  1  0
 50128  1  0
 51129  1  0
 51130  1  0
 53131  1  0
 53132  1  0
 53133  1  0
 55134  1  0
 55135  1  0
 56136  1  1
 57137  1  0
 57138  1  0
 59139  1  0
 59140  1  0
 60141  1  0
 60142  1  0
 63143  1  0
 63144  1  0
 64145  1  0
 64146  1  0
 65147  1  0
 65148  1  0
 69149  1  0
 70150  1  0
 72151  1  0
 41 42  3  0
M  END
$$$$
