 energy: -221.280612731649 gnorm: 0.000461665261 xtb: 6.7.1 (edcfbbe)
          08172523393D

151157  0     0  0            999 V2000
    3.2962    7.6673   -8.1379 C   0  0  0  0  0  0  0  0  0  0  0  0
    3.0597    6.2550   -7.6063 C   0  0  0  0  0  0  0  0  0  0  0  0
    4.2349    5.4587   -7.6566 O   0  0  0  0  0  0  0  0  0  0  0  0
    5.1119    5.6442   -6.5775 C   0  0  0  0  0  0  0  0  0  0  0  0
    2.0112    5.5252   -8.4240 C   0  0  0  0  0  0  0  0  0  0  0  0
    1.7759    5.9744   -9.6444 N   0  0  0  0  0  0  0  0  0  0  0  0
    0.8672    5.3755  -10.3915 C   0  0  0  0  0  0  0  0  0  0  0  0
    0.1171    4.2972   -9.9514 C   0  0  0  0  0  0  0  0  0  0  0  0
    0.3532    3.8220   -8.6727 C   0  0  0  0  0  0  0  0  0  0  0  0
    1.3299    4.4238   -7.8854 C   0  0  0  0  0  0  0  0  0  0  0  0
    1.6020    3.9538   -6.5187 C   0  0  0  0  0  0  0  0  0  0  0  0
    0.8259    4.3994   -5.4717 N   0  0  0  0  0  0  0  0  0  0  0  0
   -0.3152    5.2691   -5.5696 C   0  0  0  0  0  0  0  0  0  0  0  0
   -1.6301    4.4901   -5.5574 C   0  0  0  0  0  0  0  0  0  0  0  0
    2.5982    3.1269   -6.0576 C   0  0  0  0  0  0  0  0  0  0  0  0
    3.6461    2.4632   -6.8923 C   0  0  0  0  0  0  0  0  0  0  0  0
    3.3374    1.0135   -7.3351 C   0  0  0  0  0  0  0  0  0  0  0  0
    1.9135    0.8892   -7.8729 C   0  0  0  0  0  0  0  0  0  0  0  0
    4.3299    0.6154   -8.4304 C   0  0  0  0  0  0  0  0  0  0  0  0
    3.4851    0.0499   -6.1532 C   0  0  0  0  0  0  0  0  0  0  0  0
    4.8500    0.0305   -5.7240 O   0  0  0  0  0  0  0  0  0  0  0  0
    5.1152   -0.6169   -4.6002 C   0  0  0  0  0  0  0  0  0  0  0  0
    6.5827   -0.5065   -4.2134 C   0  0  0  0  0  0  0  0  0  0  0  0
    7.0061   -1.6689   -3.4511 N   0  0  0  0  0  0  0  0  0  0  0  0
    8.2060   -1.3753   -2.7981 N   0  0  0  0  0  0  0  0  0  0  0  0
    8.3151   -0.7277   -1.6141 C   0  0  0  0  0  0  0  0  0  0  0  0
    7.0083   -0.5560   -0.8135 C   0  0  0  0  0  0  0  0  0  0  0  0
    6.9515   -1.5580    0.2263 N   0  0  0  0  0  0  0  0  0  0  0  0
    6.3666   -2.7452    0.0139 C   0  0  0  0  0  0  0  0  0  0  0  0
    6.2495   -3.5763    1.2942 C   0  0  0  0  0  0  0  0  0  0  0  0
    6.1148   -5.0788    1.0233 C   0  0  0  0  0  0  0  0  0  0  0  0
    5.7775   -5.8302    2.3078 C   0  0  0  0  0  0  0  0  0  0  0  0
    7.4322   -5.5820    0.4355 C   0  0  0  0  0  0  0  0  0  0  0  0
    5.1342   -2.9997    2.0488 N   0  0  0  0  0  0  0  0  0  0  0  0
    5.4605   -2.1283    3.0193 C   0  0  0  0  0  0  0  0  0  0  0  0
    4.3862   -1.5467    3.9498 C   0  0  0  0  0  0  0  0  0  0  0  0
    4.2800   -2.4628    5.1759 C   0  0  0  0  0  0  0  0  0  0  0  0
    3.3371   -1.8507    6.2131 C   0  0  0  0  0  0  0  0  0  0  0  0
    3.7554   -0.5116    6.5499 N   0  0  0  0  0  0  0  0  0  0  0  0
    4.1521   -0.2206    7.8137 C   0  0  0  0  0  0  0  0  0  0  0  0
    4.5626    1.1465    8.0303 C   0  0  0  0  0  0  0  0  0  0  0  0
    4.9282    2.2387    8.3798 C   0  0  0  0  0  0  0  0  0  0  0  0
    5.2607    3.5918    8.8151 C   0  0  0  0  0  0  0  0  0  0  0  0
    6.2879    4.1608    7.9356 N   0  0  0  0  0  0  0  0  0  0  0  0
    6.0624    3.9620    6.5215 C   0  0  0  0  0  0  0  0  0  0  0  0
    6.6239    5.5404    8.2111 C   0  0  0  0  0  0  0  0  0  0  0  0
    3.9348    4.3844    8.8423 C   0  0  0  0  0  0  0  0  0  0  0  0
    5.8220    3.4642   10.2421 C   0  0  0  0  0  0  0  0  0  0  0  0
    4.1356   -1.0324    8.7209 O   0  0  0  0  0  0  0  0  0  0  0  0
    3.8113    0.3937    5.4310 C   0  0  0  0  0  0  0  0  0  0  0  0
    4.7843   -0.1305    4.3734 C   0  0  0  0  0  0  0  0  0  0  0  0
    6.6260   -1.8541    3.2796 O   0  0  0  0  0  0  0  0  0  0  0  0
    3.8133   -3.1475    1.4728 C   0  0  0  0  0  0  0  0  0  0  0  0
    5.9140   -3.0908   -1.0630 O   0  0  0  0  0  0  0  0  0  0  0  0
    6.9239    0.8587   -0.2371 C   0  0  0  0  0  0  0  0  0  0  0  0
    5.4864    1.3638   -0.0872 C   0  0  0  0  0  0  0  0  0  0  0  0
    4.7800    1.5460   -1.4411 C   0  0  0  0  0  0  0  0  0  0  0  0
    3.4440    2.0511   -1.2058 N   0  0  0  0  0  0  0  0  0  0  0  0
    2.7092    1.1056   -0.3821 C   0  0  0  0  0  0  0  0  0  0  0  0
    3.4495    0.9388    0.9429 C   0  0  0  0  0  0  0  0  0  0  0  0
    4.7653    0.4728    0.7428 O   0  0  0  0  0  0  0  0  0  0  0  0
    9.3865   -0.3567   -1.1722 O   0  0  0  0  0  0  0  0  0  0  0  0
    9.2830   -1.3262   -3.7703 C   0  0  0  0  0  0  0  0  0  0  0  0
    8.9848   -0.2218   -4.7927 C   0  0  0  0  0  0  0  0  0  0  0  0
    7.5751   -0.3794   -5.3732 C   0  0  0  0  0  0  0  0  0  0  0  0
    4.2922   -1.1648   -3.9128 O   0  0  0  0  0  0  0  0  0  0  0  0
    2.4428    3.0677   -4.6378 C   0  0  0  0  0  0  0  0  0  0  0  0
    1.3174    3.8609   -4.3143 C   0  0  0  0  0  0  0  0  0  0  0  0
    0.8976    4.0146   -2.9983 C   0  0  0  0  0  0  0  0  0  0  0  0
    1.6156    3.3804   -2.0136 C   0  0  0  0  0  0  0  0  0  0  0  0
    2.7484    2.5956   -2.3036 C   0  0  0  0  0  0  0  0  0  0  0  0
    3.1637    2.4454   -3.6155 C   0  0  0  0  0  0  0  0  0  0  0  0
    3.1270   -1.4647    3.3628 F   0  0  0  0  0  0  0  0  0  0  0  0
    4.0321    8.1848   -7.5278 H   0  0  0  0  0  0  0  0  0  0  0  0
    3.6516    7.6084   -9.1616 H   0  0  0  0  0  0  0  0  0  0  0  0
    2.3656    8.2269   -8.1204 H   0  0  0  0  0  0  0  0  0  0  0  0
    2.7108    6.3053   -6.5600 H   0  0  0  0  0  0  0  0  0  0  0  0
    4.6186    5.4157   -5.6237 H   0  0  0  0  0  0  0  0  0  0  0  0
    5.9348    4.9494   -6.7339 H   0  0  0  0  0  0  0  0  0  0  0  0
    5.5084    6.6646   -6.5377 H   0  0  0  0  0  0  0  0  0  0  0  0
    0.7311    5.7918  -11.3809 H   0  0  0  0  0  0  0  0  0  0  0  0
   -0.6310    3.8456  -10.5842 H   0  0  0  0  0  0  0  0  0  0  0  0
   -0.2141    2.9890   -8.2828 H   0  0  0  0  0  0  0  0  0  0  0  0
   -0.2923    5.9666   -4.7261 H   0  0  0  0  0  0  0  0  0  0  0  0
   -0.2327    5.8467   -6.4952 H   0  0  0  0  0  0  0  0  0  0  0  0
   -1.7010    3.8863   -4.6559 H   0  0  0  0  0  0  0  0  0  0  0  0
   -2.4709    5.1777   -5.5875 H   0  0  0  0  0  0  0  0  0  0  0  0
   -1.6887    3.8313   -6.4199 H   0  0  0  0  0  0  0  0  0  0  0  0
    3.7965    3.0695   -7.7872 H   0  0  0  0  0  0  0  0  0  0  0  0
    4.5862    2.4475   -6.3371 H   0  0  0  0  0  0  0  0  0  0  0  0
    1.1896    1.1332   -7.0991 H   0  0  0  0  0  0  0  0  0  0  0  0
    1.7772    1.5675   -8.7108 H   0  0  0  0  0  0  0  0  0  0  0  0
    1.7233   -0.1258   -8.2153 H   0  0  0  0  0  0  0  0  0  0  0  0
    5.3505    0.7076   -8.0696 H   0  0  0  0  0  0  0  0  0  0  0  0
    4.1654   -0.4154   -8.7370 H   0  0  0  0  0  0  0  0  0  0  0  0
    4.2087    1.2580   -9.2990 H   0  0  0  0  0  0  0  0  0  0  0  0
    2.8486    0.3526   -5.3157 H   0  0  0  0  0  0  0  0  0  0  0  0
    3.2027   -0.9677   -6.4451 H   0  0  0  0  0  0  0  0  0  0  0  0
    6.6453    0.4208   -3.6038 H   0  0  0  0  0  0  0  0  0  0  0  0
    6.3074   -2.0859   -2.8369 H   0  0  0  0  0  0  0  0  0  0  0  0
    6.1448   -0.7469   -1.4543 H   0  0  0  0  0  0  0  0  0  0  0  0
    7.3001   -1.3208    1.1444 H   0  0  0  0  0  0  0  0  0  0  0  0
    7.1415   -3.4139    1.9082 H   0  0  0  0  0  0  0  0  0  0  0  0
    5.3324   -5.2496    0.2783 H   0  0  0  0  0  0  0  0  0  0  0  0
    4.8081   -5.5307    2.6971 H   0  0  0  0  0  0  0  0  0  0  0  0
    5.7540   -6.9006    2.1191 H   0  0  0  0  0  0  0  0  0  0  0  0
    6.5299   -5.6310    3.0682 H   0  0  0  0  0  0  0  0  0  0  0  0
    7.3609   -6.6437    0.2125 H   0  0  0  0  0  0  0  0  0  0  0  0
    7.6619   -5.0530   -0.4857 H   0  0  0  0  0  0  0  0  0  0  0  0
    8.2490   -5.4309    1.1383 H   0  0  0  0  0  0  0  0  0  0  0  0
    3.9081   -3.4428    4.8724 H   0  0  0  0  0  0  0  0  0  0  0  0
    5.2788   -2.5811    5.5973 H   0  0  0  0  0  0  0  0  0  0  0  0
    2.3190   -1.8162    5.8069 H   0  0  0  0  0  0  0  0  0  0  0  0
    3.3409   -2.4423    7.1307 H   0  0  0  0  0  0  0  0  0  0  0  0
    5.9317    2.9011    6.3187 H   0  0  0  0  0  0  0  0  0  0  0  0
    5.1898    4.5110    6.1316 H   0  0  0  0  0  0  0  0  0  0  0  0
    6.9454    4.3071    5.9840 H   0  0  0  0  0  0  0  0  0  0  0  0
    6.8031    5.6812    9.2731 H   0  0  0  0  0  0  0  0  0  0  0  0
    7.5467    5.7756    7.6796 H   0  0  0  0  0  0  0  0  0  0  0  0
    5.8513    6.2520    7.8806 H   0  0  0  0  0  0  0  0  0  0  0  0
    3.2069    3.8555    9.4522 H   0  0  0  0  0  0  0  0  0  0  0  0
    4.0933    5.3723    9.2675 H   0  0  0  0  0  0  0  0  0  0  0  0
    3.5295    4.4892    7.8380 H   0  0  0  0  0  0  0  0  0  0  0  0
    5.2017    2.7825   10.8188 H   0  0  0  0  0  0  0  0  0  0  0  0
    6.8324    3.0671   10.1991 H   0  0  0  0  0  0  0  0  0  0  0  0
    5.8359    4.4256   10.7488 H   0  0  0  0  0  0  0  0  0  0  0  0
    2.8088    0.4740    4.9908 H   0  0  0  0  0  0  0  0  0  0  0  0
    4.1219    1.3799    5.7790 H   0  0  0  0  0  0  0  0  0  0  0  0
    5.7993   -0.1685    4.7680 H   0  0  0  0  0  0  0  0  0  0  0  0
    4.7758    0.5158    3.4951 H   0  0  0  0  0  0  0  0  0  0  0  0
    3.1096   -3.5643    2.1936 H   0  0  0  0  0  0  0  0  0  0  0  0
    3.4353   -2.1880    1.1190 H   0  0  0  0  0  0  0  0  0  0  0  0
    3.8801   -3.8137    0.6184 H   0  0  0  0  0  0  0  0  0  0  0  0
    7.4119    0.8700    0.7385 H   0  0  0  0  0  0  0  0  0  0  0  0
    7.4674    1.5495   -0.8841 H   0  0  0  0  0  0  0  0  0  0  0  0
    5.5119    2.3544    0.4021 H   0  0  0  0  0  0  0  0  0  0  0  0
    5.3372    2.2763   -2.0321 H   0  0  0  0  0  0  0  0  0  0  0  0
    4.7443    0.5839   -1.9759 H   0  0  0  0  0  0  0  0  0  0  0  0
    1.7009    1.4738   -0.1983 H   0  0  0  0  0  0  0  0  0  0  0  0
    2.6429    0.1245   -0.8828 H   0  0  0  0  0  0  0  0  0  0  0  0
    3.4774    1.9096    1.4632 H   0  0  0  0  0  0  0  0  0  0  0  0
    2.9504    0.2024    1.5735 H   0  0  0  0  0  0  0  0  0  0  0  0
   10.2138   -1.1289   -3.2390 H   0  0  0  0  0  0  0  0  0  0  0  0
    9.3286   -2.2999   -4.2619 H   0  0  0  0  0  0  0  0  0  0  0  0
    9.0647    0.7469   -4.2930 H   0  0  0  0  0  0  0  0  0  0  0  0
    9.7255   -0.2538   -5.5916 H   0  0  0  0  0  0  0  0  0  0  0  0
    7.5202   -1.2875   -5.9741 H   0  0  0  0  0  0  0  0  0  0  0  0
    7.3244    0.4747   -6.0019 H   0  0  0  0  0  0  0  0  0  0  0  0
    0.0422    4.6234   -2.7462 H   0  0  0  0  0  0  0  0  0  0  0  0
    1.3241    3.5044   -0.9819 H   0  0  0  0  0  0  0  0  0  0  0  0
    4.0368    1.8627   -3.8606 H   0  0  0  0  0  0  0  0  0  0  0  0
  1  2  1  0  0  0  0
  2  3  1  0  0  0  0
  2  5  1  0  0  0  0
  3  4  1  0  0  0  0
  5  6  2  0  0  0  0
  5 10  1  0  0  0  0
  6  7  1  0  0  0  0
  7  8  2  0  0  0  0
  8  9  1  0  0  0  0
  9 10  2  0  0  0  0
 10 11  1  0  0  0  0
 11 12  1  0  0  0  0
 11 15  2  0  0  0  0
 12 13  1  0  0  0  0
 12 68  1  0  0  0  0
 13 14  1  0  0  0  0
 15 16  1  0  0  0  0
 15 67  1  0  0  0  0
 16 17  1  0  0  0  0
 17 18  1  0  0  0  0
 17 19  1  0  0  0  0
 17 20  1  0  0  0  0
 20 21  1  0  0  0  0
 21 22  1  0  0  0  0
 22 23  1  0  0  0  0
 22 66  2  0  0  0  0
 23 24  1  0  0  0  0
 23 65  1  0  0  0  0
 24 25  1  0  0  0  0
 25 26  1  0  0  0  0
 25 63  1  0  0  0  0
 26 27  1  0  0  0  0
 26 62  2  0  0  0  0
 27 28  1  0  0  0  0
 27 55  1  0  0  0  0
 28 29  1  0  0  0  0
 29 30  1  0  0  0  0
 29 54  2  0  0  0  0
 30 31  1  0  0  0  0
 30 34  1  0  0  0  0
 31 32  1  0  0  0  0
 31 33  1  0  0  0  0
 34 35  1  0  0  0  0
 34 53  1  0  0  0  0
 35 36  1  0  0  0  0
 35 52  2  0  0  0  0
 36 37  1  0  0  0  0
 36 51  1  0  0  0  0
 36 73  1  0  0  0  0
 37 38  1  0  0  0  0
 38 39  1  0  0  0  0
 39 40  1  0  0  0  0
 39 50  1  0  0  0  0
 40 41  1  0  0  0  0
 40 49  2  0  0  0  0
 42 43  1  0  0  0  0
 43 44  1  0  0  0  0
 43 47  1  0  0  0  0
 43 48  1  0  0  0  0
 44 45  1  0  0  0  0
 44 46  1  0  0  0  0
 50 51  1  0  0  0  0
 55 56  1  0  0  0  0
 56 57  1  0  0  0  0
 56 61  1  0  0  0  0
 57 58  1  0  0  0  0
 58 59  1  0  0  0  0
 58 71  1  0  0  0  0
 59 60  1  0  0  0  0
 60 61  1  0  0  0  0
 63 64  1  0  0  0  0
 64 65  1  0  0  0  0
 67 68  2  0  0  0  0
 67 72  1  0  0  0  0
 68 69  1  0  0  0  0
 69 70  2  0  0  0  0
 70 71  1  0  0  0  0
 71 72  2  0  0  0  0
  1 74  1  0  0  0  0
  1 75  1  0  0  0  0
  1 76  1  0  0  0  0
  2 77  1  0  0  0  0
  4 78  1  0  0  0  0
  4 79  1  0  0  0  0
  4 80  1  0  0  0  0
  7 81  1  0  0  0  0
  8 82  1  0  0  0  0
  9 83  1  0  0  0  0
 13 84  1  0  0  0  0
 13 85  1  0  0  0  0
 14 86  1  0  0  0  0
 14 87  1  0  0  0  0
 14 88  1  0  0  0  0
 16 89  1  0  0  0  0
 16 90  1  0  0  0  0
 18 91  1  0  0  0  0
 18 92  1  0  0  0  0
 18 93  1  0  0  0  0
 19 94  1  0  0  0  0
 19 95  1  0  0  0  0
 19 96  1  0  0  0  0
 20 97  1  0  0  0  0
 20 98  1  0  0  0  0
 23 99  1  0  0  0  0
 24100  1  0  0  0  0
 27101  1  0  0  0  0
 28102  1  0  0  0  0
 30103  1  0  0  0  0
 31104  1  0  0  0  0
 32105  1  0  0  0  0
 32106  1  0  0  0  0
 32107  1  0  0  0  0
 33108  1  0  0  0  0
 33109  1  0  0  0  0
 33110  1  0  0  0  0
 37111  1  0  0  0  0
 37112  1  0  0  0  0
 38113  1  0  0  0  0
 38114  1  0  0  0  0
 45115  1  0  0  0  0
 45116  1  0  0  0  0
 45117  1  0  0  0  0
 46118  1  0  0  0  0
 46119  1  0  0  0  0
 46120  1  0  0  0  0
 47121  1  0  0  0  0
 47122  1  0  0  0  0
 47123  1  0  0  0  0
 48124  1  0  0  0  0
 48125  1  0  0  0  0
 48126  1  0  0  0  0
 50127  1  0  0  0  0
 50128  1  0  0  0  0
 51129  1  0  0  0  0
 51130  1  0  0  0  0
 53131  1  0  0  0  0
 53132  1  0  0  0  0
 53133  1  0  0  0  0
 55134  1  0  0  0  0
 55135  1  0  0  0  0
 56136  1  0  0  0  0
 57137  1  0  0  0  0
 57138  1  0  0  0  0
 59139  1  0  0  0  0
 59140  1  0  0  0  0
 60141  1  0  0  0  0
 60142  1  0  0  0  0
 63143  1  0  0  0  0
 63144  1  0  0  0  0
 64145  1  0  0  0  0
 64146  1  0  0  0  0
 65147  1  0  0  0  0
 65148  1  0  0  0  0
 69149  1  0  0  0  0
 70150  1  0  0  0  0
 72151  1  0  0  0  0
 41 42  3  0  0  0  0
M  END
$$$$
