 xtb: 6.7.1 (edcfbbe)
          08232520523D

151157  0     0  0            999 V2000
   -5.8623    5.9557   -1.0650 C   0  0  0  0  0  0  0  0  0  0  0  0
   -5.5674    5.8700   -2.5685 C   0  0  0  0  0  0  0  0  0  0  0  0
   -4.8832    4.6752   -2.9082 O   0  0  0  0  0  0  0  0  0  0  0  0
   -5.7246    3.6251   -3.3015 C   0  0  0  0  0  0  0  0  0  0  0  0
   -4.7857    7.0895   -3.0057 C   0  0  0  0  0  0  0  0  0  0  0  0
   -5.5491    8.0169   -3.5709 N   0  0  0  0  0  0  0  0  0  0  0  0
   -5.0256    9.1745   -3.9252 C   0  0  0  0  0  0  0  0  0  0  0  0
   -3.6915    9.4877   -3.7235 C   0  0  0  0  0  0  0  0  0  0  0  0
   -2.8871    8.5220   -3.1488 C   0  0  0  0  0  0  0  0  0  0  0  0
   -3.4168    7.2823   -2.7875 C   0  0  0  0  0  0  0  0  0  0  0  0
   -2.5124    6.2936   -2.1805 C   0  0  0  0  0  0  0  0  0  0  0  0
   -2.1003    6.4670   -0.8777 N   0  0  0  0  0  0  0  0  0  0  0  0
   -2.5289    7.4977    0.0317 C   0  0  0  0  0  0  0  0  0  0  0  0
   -1.4495    8.5590    0.2428 C   0  0  0  0  0  0  0  0  0  0  0  0
   -1.8763    5.2091   -2.7419 C   0  0  0  0  0  0  0  0  0  0  0  0
   -2.0471    4.6155   -4.1052 C   0  0  0  0  0  0  0  0  0  0  0  0
   -1.1048    5.1352   -5.2146 C   0  0  0  0  0  0  0  0  0  0  0  0
   -1.4866    4.4560   -6.5321 C   0  0  0  0  0  0  0  0  0  0  0  0
   -1.2546    6.6495   -5.3671 C   0  0  0  0  0  0  0  0  0  0  0  0
    0.3769    4.8615   -4.8841 C   0  0  0  0  0  0  0  0  0  0  0  0
    0.8536    3.5564   -5.2448 O   0  0  0  0  0  0  0  0  0  0  0  0
    1.5450    3.4675   -6.3785 C   0  0  0  0  0  0  0  0  0  0  0  0
    2.1873    2.0946   -6.5492 C   0  0  0  0  0  0  0  0  0  0  0  0
    1.2486    0.9877   -6.4292 N   0  0  0  0  0  0  0  0  0  0  0  0
    1.9587   -0.2180   -6.3660 N   0  0  0  0  0  0  0  0  0  0  0  0
    2.4713   -0.7840   -5.2493 C   0  0  0  0  0  0  0  0  0  0  0  0
    2.0574   -0.1396   -3.9132 C   0  0  0  0  0  0  0  0  0  0  0  0
    1.0412   -0.9578   -3.2818 N   0  0  0  0  0  0  0  0  0  0  0  0
   -0.2586   -0.7785   -3.5507 C   0  0  0  0  0  0  0  0  0  0  0  0
   -1.2081   -1.6954   -2.7749 C   0  0  0  0  0  0  0  0  0  0  0  0
   -1.6508   -2.8967   -3.6279 C   0  0  0  0  0  0  0  0  0  0  0  0
   -2.5099   -3.8396   -2.7873 C   0  0  0  0  0  0  0  0  0  0  0  0
   -0.4284   -3.6425   -4.1610 C   0  0  0  0  0  0  0  0  0  0  0  0
   -2.3238   -0.8934   -2.2734 N   0  0  0  0  0  0  0  0  0  0  0  0
   -2.2169   -0.4654   -1.0039 C   0  0  0  0  0  0  0  0  0  0  0  0
   -3.2827    0.4732   -0.4150 C   0  0  0  0  0  0  0  0  0  0  0  0
   -3.2196    0.4347    1.1150 C   0  0  0  0  0  0  0  0  0  0  0  0
   -4.2002    1.4409    1.7182 C   0  0  0  0  0  0  0  0  0  0  0  0
   -3.9723    2.7629    1.1918 N   0  0  0  0  0  0  0  0  0  0  0  0
   -3.7380    3.8643    1.9357 C   0  0  0  0  0  0  0  0  0  0  0  0
   -3.6066    3.6419    3.3548 C   0  0  0  0  0  0  0  0  0  0  0  0
   -3.4636    3.6746    4.5498 C   0  0  0  0  0  0  0  0  0  0  0  0
   -3.3135    3.5579    5.9973 C   0  0  0  0  0  0  0  0  0  0  0  0
   -3.2896    4.9073    6.5689 N   0  0  0  0  0  0  0  0  0  0  0  0
   -4.3879    5.7541    6.1535 C   0  0  0  0  0  0  0  0  0  0  0  0
   -3.1141    4.9692    8.0025 C   0  0  0  0  0  0  0  0  0  0  0  0
   -1.9614    2.8638    6.2406 C   0  0  0  0  0  0  0  0  0  0  0  0
   -4.4593    2.6617    6.5157 C   0  0  0  0  0  0  0  0  0  0  0  0
   -3.6509    4.9875    1.4655 O   0  0  0  0  0  0  0  0  0  0  0  0
   -4.0546    2.8514   -0.2456 C   0  0  0  0  0  0  0  0  0  0  0  0
   -3.0403    1.9096   -0.8874 C   0  0  0  0  0  0  0  0  0  0  0  0
   -1.2639   -0.7686   -0.2975 O   0  0  0  0  0  0  0  0  0  0  0  0
   -3.3428   -0.5235   -3.2322 C   0  0  0  0  0  0  0  0  0  0  0  0
   -0.6493    0.0640   -4.3462 O   0  0  0  0  0  0  0  0  0  0  0  0
    3.2667    0.0214   -2.9947 C   0  0  0  0  0  0  0  0  0  0  0  0
    2.9226    0.6538   -1.6368 C   0  0  0  0  0  0  0  0  0  0  0  0
    1.7835    1.6702   -1.7420 C   0  0  0  0  0  0  0  0  0  0  0  0
    1.4765    2.2528   -0.4514 N   0  0  0  0  0  0  0  0  0  0  0  0
    1.1698    1.1928    0.5034 C   0  0  0  0  0  0  0  0  0  0  0  0
    2.3153    0.1820    0.5431 C   0  0  0  0  0  0  0  0  0  0  0  0
    2.5700   -0.3720   -0.7284 O   0  0  0  0  0  0  0  0  0  0  0  0
    3.1587   -1.7880   -5.2842 O   0  0  0  0  0  0  0  0  0  0  0  0
    2.5255   -0.5257   -7.6664 C   0  0  0  0  0  0  0  0  0  0  0  0
    3.5190    0.5806   -8.0357 C   0  0  0  0  0  0  0  0  0  0  0  0
    2.8480    1.9502   -7.9250 C   0  0  0  0  0  0  0  0  0  0  0  0
    1.7354    4.3785   -7.1404 O   0  0  0  0  0  0  0  0  0  0  0  0
   -1.0432    4.6732   -1.7159 C   0  0  0  0  0  0  0  0  0  0  0  0
   -1.2169    5.4740   -0.5661 C   0  0  0  0  0  0  0  0  0  0  0  0
   -0.5456    5.1719    0.6147 C   0  0  0  0  0  0  0  0  0  0  0  0
    0.3126    4.0959    0.6203 C   0  0  0  0  0  0  0  0  0  0  0  0
    0.5175    3.2951   -0.5198 C   0  0  0  0  0  0  0  0  0  0  0  0
   -0.1793    3.5787   -1.6823 C   0  0  0  0  0  0  0  0  0  0  0  0
   -4.5627    0.0588   -0.7903 F   0  0  0  0  0  0  0  0  0  0  0  0
   -4.9451    5.8903   -0.4862 H   0  0  0  0  0  0  0  0  0  0  0  0
   -6.3570    6.8986   -0.8469 H   0  0  0  0  0  0  0  0  0  0  0  0
   -6.5193    5.1419   -0.7664 H   0  0  0  0  0  0  0  0  0  0  0  0
   -6.5211    5.9148   -3.1152 H   0  0  0  0  0  0  0  0  0  0  0  0
   -6.4035    3.3149   -2.4987 H   0  0  0  0  0  0  0  0  0  0  0  0
   -6.3253    3.9009   -4.1776 H   0  0  0  0  0  0  0  0  0  0  0  0
   -5.0746    2.7922   -3.5639 H   0  0  0  0  0  0  0  0  0  0  0  0
   -5.7114    9.8762   -4.3816 H   0  0  0  0  0  0  0  0  0  0  0  0
   -3.2953   10.4500   -4.0078 H   0  0  0  0  0  0  0  0  0  0  0  0
   -1.8385    8.7191   -2.9767 H   0  0  0  0  0  0  0  0  0  0  0  0
   -3.4318    7.9630   -0.3716 H   0  0  0  0  0  0  0  0  0  0  0  0
   -2.7804    7.0239    0.9842 H   0  0  0  0  0  0  0  0  0  0  0  0
   -1.7839    9.2819    0.9822 H   0  0  0  0  0  0  0  0  0  0  0  0
   -0.5293    8.0995    0.5944 H   0  0  0  0  0  0  0  0  0  0  0  0
   -1.2379    9.0864   -0.6846 H   0  0  0  0  0  0  0  0  0  0  0  0
   -1.9034    3.5355   -4.0240 H   0  0  0  0  0  0  0  0  0  0  0  0
   -3.0728    4.7942   -4.4293 H   0  0  0  0  0  0  0  0  0  0  0  0
   -1.4386    3.3728   -6.4377 H   0  0  0  0  0  0  0  0  0  0  0  0
   -2.5009    4.7321   -6.8104 H   0  0  0  0  0  0  0  0  0  0  0  0
   -0.8138    4.7643   -7.3293 H   0  0  0  0  0  0  0  0  0  0  0  0
   -0.8663    7.1555   -4.4876 H   0  0  0  0  0  0  0  0  0  0  0  0
   -0.7073    7.0001   -6.2394 H   0  0  0  0  0  0  0  0  0  0  0  0
   -2.3020    6.9146   -5.4862 H   0  0  0  0  0  0  0  0  0  0  0  0
    1.0003    5.5891   -5.4138 H   0  0  0  0  0  0  0  0  0  0  0  0
    0.5431    4.9512   -3.8089 H   0  0  0  0  0  0  0  0  0  0  0  0
    2.9712    2.0458   -5.7651 H   0  0  0  0  0  0  0  0  0  0  0  0
    0.5565    1.0620   -5.6866 H   0  0  0  0  0  0  0  0  0  0  0  0
    1.6163    0.8411   -4.1061 H   0  0  0  0  0  0  0  0  0  0  0  0
    1.3533   -1.5944   -2.5645 H   0  0  0  0  0  0  0  0  0  0  0  0
   -0.6859   -2.0700   -1.8881 H   0  0  0  0  0  0  0  0  0  0  0  0
   -2.2289   -2.5348   -4.4825 H   0  0  0  0  0  0  0  0  0  0  0  0
   -3.3597   -3.3227   -2.3493 H   0  0  0  0  0  0  0  0  0  0  0  0
   -2.8830   -4.6555   -3.4017 H   0  0  0  0  0  0  0  0  0  0  0  0
   -1.9185   -4.2620   -1.9777 H   0  0  0  0  0  0  0  0  0  0  0  0
    0.2055   -3.9788   -3.3432 H   0  0  0  0  0  0  0  0  0  0  0  0
   -0.7492   -4.5167   -4.7223 H   0  0  0  0  0  0  0  0  0  0  0  0
    0.1643   -3.0158   -4.8227 H   0  0  0  0  0  0  0  0  0  0  0  0
   -3.4633   -0.5710    1.4604 H   0  0  0  0  0  0  0  0  0  0  0  0
   -2.1990    0.6643    1.4190 H   0  0  0  0  0  0  0  0  0  0  0  0
   -5.2246    1.1331    1.4679 H   0  0  0  0  0  0  0  0  0  0  0  0
   -4.0962    1.4628    2.8046 H   0  0  0  0  0  0  0  0  0  0  0  0
   -5.3470    5.4860    6.6240 H   0  0  0  0  0  0  0  0  0  0  0  0
   -4.1509    6.7810    6.4327 H   0  0  0  0  0  0  0  0  0  0  0  0
   -4.4994    5.7077    5.0724 H   0  0  0  0  0  0  0  0  0  0  0  0
   -4.0003    4.6385    8.5667 H   0  0  0  0  0  0  0  0  0  0  0  0
   -2.2577    4.3746    8.3078 H   0  0  0  0  0  0  0  0  0  0  0  0
   -2.9160    6.0074    8.2710 H   0  0  0  0  0  0  0  0  0  0  0  0
   -1.8864    2.4995    7.2617 H   0  0  0  0  0  0  0  0  0  0  0  0
   -1.8578    2.0153    5.5680 H   0  0  0  0  0  0  0  0  0  0  0  0
   -1.1538    3.5645    6.0472 H   0  0  0  0  0  0  0  0  0  0  0  0
   -4.3665    2.5163    7.5892 H   0  0  0  0  0  0  0  0  0  0  0  0
   -5.4254    3.1118    6.2992 H   0  0  0  0  0  0  0  0  0  0  0  0
   -4.4155    1.6904    6.0291 H   0  0  0  0  0  0  0  0  0  0  0  0
   -5.0654    2.5741   -0.5661 H   0  0  0  0  0  0  0  0  0  0  0  0
   -3.8489    3.8770   -0.5501 H   0  0  0  0  0  0  0  0  0  0  0  0
   -2.0311    2.1980   -0.5888 H   0  0  0  0  0  0  0  0  0  0  0  0
   -3.1073    1.9992   -1.9704 H   0  0  0  0  0  0  0  0  0  0  0  0
   -3.9477    0.2996   -2.8738 H   0  0  0  0  0  0  0  0  0  0  0  0
   -2.8520   -0.2182   -4.1562 H   0  0  0  0  0  0  0  0  0  0  0  0
   -4.0057   -1.3679   -3.4312 H   0  0  0  0  0  0  0  0  0  0  0  0
    3.7145   -0.9582   -2.8186 H   0  0  0  0  0  0  0  0  0  0  0  0
    4.0046    0.6434   -3.5039 H   0  0  0  0  0  0  0  0  0  0  0  0
    3.8166    1.1693   -1.2443 H   0  0  0  0  0  0  0  0  0  0  0  0
    2.0788    2.4721   -2.4230 H   0  0  0  0  0  0  0  0  0  0  0  0
    0.8948    1.1520   -2.1291 H   0  0  0  0  0  0  0  0  0  0  0  0
    1.0323    1.6244    1.4949 H   0  0  0  0  0  0  0  0  0  0  0  0
    0.2540    0.6540    0.2157 H   0  0  0  0  0  0  0  0  0  0  0  0
    3.2285    0.6690    0.9188 H   0  0  0  0  0  0  0  0  0  0  0  0
    2.0522   -0.6546    1.1917 H   0  0  0  0  0  0  0  0  0  0  0  0
    3.0163   -1.4966   -7.6030 H   0  0  0  0  0  0  0  0  0  0  0  0
    1.7064   -0.5621   -8.3870 H   0  0  0  0  0  0  0  0  0  0  0  0
    4.3692    0.5306   -7.3510 H   0  0  0  0  0  0  0  0  0  0  0  0
    3.8880    0.4230   -9.0488 H   0  0  0  0  0  0  0  0  0  0  0  0
    2.0701    2.0466   -8.6829 H   0  0  0  0  0  0  0  0  0  0  0  0
    3.5717    2.7508   -8.0748 H   0  0  0  0  0  0  0  0  0  0  0  0
   -0.6922    5.7565    1.5094 H   0  0  0  0  0  0  0  0  0  0  0  0
    0.8611    3.8628    1.5203 H   0  0  0  0  0  0  0  0  0  0  0  0
   -0.0895    2.9749   -2.5696 H   0  0  0  0  0  0  0  0  0  0  0  0
  1  2  1  0  0  0  0
  2  3  1  0  0  0  0
  3  4  1  0  0  0  0
  2  5  1  0  0  0  0
  5  6  4  0  0  0  0
  6  7  4  0  0  0  0
  7  8  4  0  0  0  0
  8  9  4  0  0  0  0
  5 10  4  0  0  0  0
  9 10  4  0  0  0  0
 10 11  1  0  0  0  0
 11 12  1  0  0  0  0
 12 13  1  0  0  0  0
 13 14  1  0  0  0  0
 11 15  2  0  0  0  0
 15 16  1  0  0  0  0
 16 17  1  0  0  0  0
 17 18  1  0  0  0  0
 17 19  1  0  0  0  0
 17 20  1  0  0  0  0
 20 21  1  0  0  0  0
 21 22  1  0  0  0  0
 22 23  1  0  0  0  0
 23 24  1  0  0  0  0
 24 25  1  0  0  0  0
 25 26  4  0  0  0  0
 26 27  1  0  0  0  0
 27 28  1  0  0  0  0
 28 29  4  0  0  0  0
 29 30  1  0  0  0  0
 30 31  1  0  0  0  0
 31 32  1  0  0  0  0
 31 33  1  0  0  0  0
 30 34  1  0  0  0  0
 34 35  4  0  0  0  0
 35 36  1  0  0  0  0
 36 37  1  0  0  0  0
 37 38  1  0  0  0  0
 38 39  1  0  0  0  0
 39 40  4  0  0  0  0
 40 41  1  0  0  0  0
 41 42  3  0  0  0  0
 42 43  1  0  0  0  0
 43 44  1  0  0  0  0
 44 45  1  0  0  0  0
 44 46  1  0  0  0  0
 43 47  1  0  0  0  0
 43 48  1  0  0  0  0
 40 49  2  0  0  0  0
 39 50  1  0  0  0  0
 36 51  1  0  0  0  0
 50 51  1  0  0  0  0
 35 52  2  0  0  0  0
 34 53  1  0  0  0  0
 29 54  2  0  0  0  0
 27 55  1  0  0  0  0
 55 56  1  0  0  0  0
 56 57  1  0  0  0  0
 57 58  1  0  0  0  0
 58 59  1  0  0  0  0
 59 60  1  0  0  0  0
 56 61  1  0  0  0  0
 60 61  1  0  0  0  0
 26 62  2  0  0  0  0
 25 63  1  0  0  0  0
 63 64  1  0  0  0  0
 23 65  1  0  0  0  0
 64 65  1  0  0  0  0
 22 66  2  0  0  0  0
 15 67  4  0  0  0  0
 12 68  1  0  0  0  0
 67 68  4  0  0  0  0
 68 69  4  0  0  0  0
 69 70  2  0  0  0  0
 58 71  1  0  0  0  0
 70 71  4  0  0  0  0
 67 72  4  0  0  0  0
 71 72  4  0  0  0  0
 36 73  1  0  0  0  0
  1 74  1  0  0  0  0
  1 75  1  0  0  0  0
  1 76  1  0  0  0  0
  2 77  1  0  0  0  0
  4 78  1  0  0  0  0
  4 79  1  0  0  0  0
  4 80  1  0  0  0  0
  7 81  1  0  0  0  0
  8 82  1  0  0  0  0
  9 83  1  0  0  0  0
 13 84  1  0  0  0  0
 13 85  1  0  0  0  0
 14 86  1  0  0  0  0
 14 87  1  0  0  0  0
 14 88  1  0  0  0  0
 16 89  1  0  0  0  0
 16 90  1  0  0  0  0
 18 91  1  0  0  0  0
 18 92  1  0  0  0  0
 18 93  1  0  0  0  0
 19 94  1  0  0  0  0
 19 95  1  0  0  0  0
 19 96  1  0  0  0  0
 20 97  1  0  0  0  0
 20 98  1  0  0  0  0
 23 99  1  0  0  0  0
 24100  1  0  0  0  0
 27101  1  0  0  0  0
 28102  1  0  0  0  0
 30103  1  0  0  0  0
 31104  1  0  0  0  0
 32105  1  0  0  0  0
 32106  1  0  0  0  0
 32107  1  0  0  0  0
 33108  1  0  0  0  0
 33109  1  0  0  0  0
 33110  1  0  0  0  0
 37111  1  0  0  0  0
 37112  1  0  0  0  0
 38113  1  0  0  0  0
 38114  1  0  0  0  0
 45115  1  0  0  0  0
 45116  1  0  0  0  0
 45117  1  0  0  0  0
 46118  1  0  0  0  0
 46119  1  0  0  0  0
 46120  1  0  0  0  0
 47121  1  0  0  0  0
 47122  1  0  0  0  0
 47123  1  0  0  0  0
 48124  1  0  0  0  0
 48125  1  0  0  0  0
 48126  1  0  0  0  0
 50127  1  0  0  0  0
 50128  1  0  0  0  0
 51129  1  0  0  0  0
 51130  1  0  0  0  0
 53131  1  0  0  0  0
 53132  1  0  0  0  0
 53133  1  0  0  0  0
 55134  1  0  0  0  0
 55135  1  0  0  0  0
 56136  1  0  0  0  0
 57137  1  0  0  0  0
 57138  1  0  0  0  0
 59139  1  0  0  0  0
 59140  1  0  0  0  0
 60141  1  0  0  0  0
 60142  1  0  0  0  0
 63143  1  0  0  0  0
 63144  1  0  0  0  0
 64145  1  0  0  0  0
 64146  1  0  0  0  0
 65147  1  0  0  0  0
 65148  1  0  0  0  0
 69149  1  0  0  0  0
 70150  1  0  0  0  0
 72151  1  0  0  0  0
M  END
$$$$
