 energy: -221.284770542827 gnorm: 0.000396696697 xtb: 6.7.1 (edcfbbe)
          08232515503D

151157  0     0  0            999 V2000
    1.1344    7.4072   -3.3928 C   0  0  0  0  0  0  0  0  0  0  0  0
    0.2239    6.2402   -3.8016 C   0  0  0  0  0  0  0  0  0  0  0  0
   -0.0372    5.3421   -2.7453 O   0  0  0  0  0  0  0  0  0  0  0  0
   -0.9009    5.8284   -1.7512 C   0  0  0  0  0  0  0  0  0  0  0  0
    0.8211    5.4982   -4.9828 C   0  0  0  0  0  0  0  0  0  0  0  0
    1.0574    6.2905   -6.0216 N   0  0  0  0  0  0  0  0  0  0  0  0
    1.5232    5.7834   -7.1453 C   0  0  0  0  0  0  0  0  0  0  0  0
    1.7754    4.4310   -7.3134 C   0  0  0  0  0  0  0  0  0  0  0  0
    1.5436    3.5990   -6.2349 C   0  0  0  0  0  0  0  0  0  0  0  0
    1.0640    4.1192   -5.0311 C   0  0  0  0  0  0  0  0  0  0  0  0
    0.8480    3.1767   -3.9274 C   0  0  0  0  0  0  0  0  0  0  0  0
    1.6607    3.1609   -2.8169 N   0  0  0  0  0  0  0  0  0  0  0  0
    2.8280    3.9725   -2.6174 C   0  0  0  0  0  0  0  0  0  0  0  0
    4.0967    3.2478   -3.0691 C   0  0  0  0  0  0  0  0  0  0  0  0
   -0.0703    2.1549   -3.8590 C   0  0  0  0  0  0  0  0  0  0  0  0
   -1.1244    1.7680   -4.8468 C   0  0  0  0  0  0  0  0  0  0  0  0
   -2.5065    2.4263   -4.6305 C   0  0  0  0  0  0  0  0  0  0  0  0
   -2.4129    3.9188   -4.9456 C   0  0  0  0  0  0  0  0  0  0  0  0
   -3.0112    2.2490   -3.1994 C   0  0  0  0  0  0  0  0  0  0  0  0
   -3.5101    1.7927   -5.6104 C   0  0  0  0  0  0  0  0  0  0  0  0
   -3.7289    0.4025   -5.3432 O   0  0  0  0  0  0  0  0  0  0  0  0
   -4.9718    0.0107   -5.0681 C   0  0  0  0  0  0  0  0  0  0  0  0
   -5.0326   -1.4995   -4.8605 C   0  0  0  0  0  0  0  0  0  0  0  0
   -5.7602   -1.7606   -3.6221 N   0  0  0  0  0  0  0  0  0  0  0  0
   -5.8418   -3.1311   -3.3491 N   0  0  0  0  0  0  0  0  0  0  0  0
   -5.1222   -3.8402   -2.4576 C   0  0  0  0  0  0  0  0  0  0  0  0
   -4.0878   -3.0378   -1.6431 C   0  0  0  0  0  0  0  0  0  0  0  0
   -4.7087   -2.3771   -0.5111 N   0  0  0  0  0  0  0  0  0  0  0  0
   -4.8586   -1.0473   -0.4516 C   0  0  0  0  0  0  0  0  0  0  0  0
   -5.4092   -0.5184    0.8685 C   0  0  0  0  0  0  0  0  0  0  0  0
   -6.8743   -0.0716    0.6716 C   0  0  0  0  0  0  0  0  0  0  0  0
   -7.4299    0.4975    1.9741 C   0  0  0  0  0  0  0  0  0  0  0  0
   -7.7149   -1.2587    0.2055 C   0  0  0  0  0  0  0  0  0  0  0  0
   -4.5689    0.5486    1.4009 N   0  0  0  0  0  0  0  0  0  0  0  0
   -4.0411    0.3532    2.6248 C   0  0  0  0  0  0  0  0  0  0  0  0
   -3.2542    1.4891    3.3075 C   0  0  0  0  0  0  0  0  0  0  0  0
   -4.2594    2.4131    4.0085 C   0  0  0  0  0  0  0  0  0  0  0  0
   -3.5284    3.4746    4.8329 C   0  0  0  0  0  0  0  0  0  0  0  0
   -2.6173    2.8509    5.7600 N   0  0  0  0  0  0  0  0  0  0  0  0
   -2.8442    2.9297    7.0947 C   0  0  0  0  0  0  0  0  0  0  0  0
   -1.8822    2.2316    7.9141 C   0  0  0  0  0  0  0  0  0  0  0  0
   -1.1441    1.7327    8.7229 C   0  0  0  0  0  0  0  0  0  0  0  0
   -0.2296    1.0617    9.6442 C   0  0  0  0  0  0  0  0  0  0  0  0
    1.0265    1.8218    9.6472 N   0  0  0  0  0  0  0  0  0  0  0  0
    0.8682    3.2198    9.9937 C   0  0  0  0  0  0  0  0  0  0  0  0
    2.1073    1.2337   10.4069 C   0  0  0  0  0  0  0  0  0  0  0  0
    0.0068   -0.3487    9.0771 C   0  0  0  0  0  0  0  0  0  0  0  0
   -0.9246    0.9607   11.0166 C   0  0  0  0  0  0  0  0  0  0  0  0
   -3.7633    3.5645    7.5793 O   0  0  0  0  0  0  0  0  0  0  0  0
   -1.6146    2.0268    5.1360 C   0  0  0  0  0  0  0  0  0  0  0  0
   -2.2759    0.9054    4.3314 C   0  0  0  0  0  0  0  0  0  0  0  0
   -4.2323   -0.6680    3.2683 O   0  0  0  0  0  0  0  0  0  0  0  0
   -4.3315    1.7078    0.5652 C   0  0  0  0  0  0  0  0  0  0  0  0
   -4.6329   -0.3281   -1.4176 O   0  0  0  0  0  0  0  0  0  0  0  0
   -2.9655   -3.9573   -1.1551 C   0  0  0  0  0  0  0  0  0  0  0  0
   -1.9108   -3.2272   -0.3139 C   0  0  0  0  0  0  0  0  0  0  0  0
   -1.4438   -1.9386   -0.9927 C   0  0  0  0  0  0  0  0  0  0  0  0
   -0.4709   -1.2320   -0.1809 N   0  0  0  0  0  0  0  0  0  0  0  0
   -1.0356   -0.9733    1.1358 C   0  0  0  0  0  0  0  0  0  0  0  0
   -1.5084   -2.2819    1.7692 C   0  0  0  0  0  0  0  0  0  0  0  0
   -2.4540   -2.9431    0.9623 O   0  0  0  0  0  0  0  0  0  0  0  0
   -5.2932   -5.0340   -2.2842 O   0  0  0  0  0  0  0  0  0  0  0  0
   -6.6876   -3.7930   -4.3237 C   0  0  0  0  0  0  0  0  0  0  0  0
   -6.0577   -3.6261   -5.7079 C   0  0  0  0  0  0  0  0  0  0  0  0
   -5.8360   -2.1424   -6.0006 C   0  0  0  0  0  0  0  0  0  0  0  0
   -5.9303    0.7319   -5.0226 O   0  0  0  0  0  0  0  0  0  0  0  0
    0.1857    1.4780   -2.6319 C   0  0  0  0  0  0  0  0  0  0  0  0
    1.2750    2.1263   -2.0118 C   0  0  0  0  0  0  0  0  0  0  0  0
    1.7657    1.6649   -0.7946 C   0  0  0  0  0  0  0  0  0  0  0  0
    1.1607    0.5706   -0.2171 C   0  0  0  0  0  0  0  0  0  0  0  0
    0.0717   -0.0865   -0.8193 C   0  0  0  0  0  0  0  0  0  0  0  0
   -0.4094    0.3731   -2.0315 C   0  0  0  0  0  0  0  0  0  0  0  0
   -2.5051    2.2345    2.4026 F   0  0  0  0  0  0  0  0  0  0  0  0
    0.6187    8.0747   -2.7075 H   0  0  0  0  0  0  0  0  0  0  0  0
    2.0329    7.0328   -2.9074 H   0  0  0  0  0  0  0  0  0  0  0  0
    1.4105    7.9595   -4.2855 H   0  0  0  0  0  0  0  0  0  0  0  0
   -0.7295    6.6713   -4.1591 H   0  0  0  0  0  0  0  0  0  0  0  0
   -0.4404    6.6282   -1.1615 H   0  0  0  0  0  0  0  0  0  0  0  0
   -1.8375    6.2002   -2.1850 H   0  0  0  0  0  0  0  0  0  0  0  0
   -1.1140    4.9827   -1.0993 H   0  0  0  0  0  0  0  0  0  0  0  0
    1.6939    6.4957   -7.9418 H   0  0  0  0  0  0  0  0  0  0  0  0
    2.1459    4.0457   -8.2505 H   0  0  0  0  0  0  0  0  0  0  0  0
    1.7373    2.5376   -6.3043 H   0  0  0  0  0  0  0  0  0  0  0  0
    2.7095    4.8951   -3.1878 H   0  0  0  0  0  0  0  0  0  0  0  0
    2.8981    4.2261   -1.5556 H   0  0  0  0  0  0  0  0  0  0  0  0
    4.2077    2.3101   -2.5299 H   0  0  0  0  0  0  0  0  0  0  0  0
    4.0453    3.0300   -4.1337 H   0  0  0  0  0  0  0  0  0  0  0  0
    4.9704    3.8667   -2.8822 H   0  0  0  0  0  0  0  0  0  0  0  0
   -0.7893    2.0233   -5.8559 H   0  0  0  0  0  0  0  0  0  0  0  0
   -1.2559    0.6848   -4.7999 H   0  0  0  0  0  0  0  0  0  0  0  0
   -1.7035    4.3755   -4.2643 H   0  0  0  0  0  0  0  0  0  0  0  0
   -2.0705    4.0848   -5.9655 H   0  0  0  0  0  0  0  0  0  0  0  0
   -3.3805    4.4010   -4.8238 H   0  0  0  0  0  0  0  0  0  0  0  0
   -3.1700    1.2016   -2.9597 H   0  0  0  0  0  0  0  0  0  0  0  0
   -2.2926    2.6615   -2.4968 H   0  0  0  0  0  0  0  0  0  0  0  0
   -3.9606    2.7658   -3.0735 H   0  0  0  0  0  0  0  0  0  0  0  0
   -4.4741    2.3070   -5.5479 H   0  0  0  0  0  0  0  0  0  0  0  0
   -3.1305    1.8578   -6.6351 H   0  0  0  0  0  0  0  0  0  0  0  0
   -4.0039   -1.8998   -4.8497 H   0  0  0  0  0  0  0  0  0  0  0  0
   -5.3913   -1.2155   -2.8448 H   0  0  0  0  0  0  0  0  0  0  0  0
   -3.6771   -2.2613   -2.2958 H   0  0  0  0  0  0  0  0  0  0  0  0
   -4.7832   -2.9324    0.3279 H   0  0  0  0  0  0  0  0  0  0  0  0
   -5.3821   -1.3136    1.6202 H   0  0  0  0  0  0  0  0  0  0  0  0
   -6.9100    0.7000   -0.1041 H   0  0  0  0  0  0  0  0  0  0  0  0
   -7.3454   -0.2357    2.7730 H   0  0  0  0  0  0  0  0  0  0  0  0
   -6.8907    1.3925    2.2735 H   0  0  0  0  0  0  0  0  0  0  0  0
   -8.4784    0.7567    1.8506 H   0  0  0  0  0  0  0  0  0  0  0  0
   -7.6659   -2.0701    0.9285 H   0  0  0  0  0  0  0  0  0  0  0  0
   -8.7540   -0.9560    0.1018 H   0  0  0  0  0  0  0  0  0  0  0  0
   -7.3746   -1.6284   -0.7589 H   0  0  0  0  0  0  0  0  0  0  0  0
   -4.9008    2.9029    3.2748 H   0  0  0  0  0  0  0  0  0  0  0  0
   -4.8810    1.7972    4.6600 H   0  0  0  0  0  0  0  0  0  0  0  0
   -2.9628    4.1333    4.1636 H   0  0  0  0  0  0  0  0  0  0  0  0
   -4.2414    4.0670    5.4098 H   0  0  0  0  0  0  0  0  0  0  0  0
    0.7238    3.3854   11.0720 H   0  0  0  0  0  0  0  0  0  0  0  0
    1.7697    3.7521    9.6877 H   0  0  0  0  0  0  0  0  0  0  0  0
    0.0196    3.6383    9.4569 H   0  0  0  0  0  0  0  0  0  0  0  0
    1.9352    1.2436   11.4943 H   0  0  0  0  0  0  0  0  0  0  0  0
    2.2868    0.2114   10.0856 H   0  0  0  0  0  0  0  0  0  0  0  0
    3.0090    1.8129   10.2063 H   0  0  0  0  0  0  0  0  0  0  0  0
    0.4622   -0.9973    9.8206 H   0  0  0  0  0  0  0  0  0  0  0  0
   -0.9445   -0.7855    8.7817 H   0  0  0  0  0  0  0  0  0  0  0  0
    0.6516   -0.2916    8.2038 H   0  0  0  0  0  0  0  0  0  0  0  0
   -0.2768    0.4582   11.7314 H   0  0  0  0  0  0  0  0  0  0  0  0
   -1.1749    1.9492   11.3938 H   0  0  0  0  0  0  0  0  0  0  0  0
   -1.8442    0.3897   10.9184 H   0  0  0  0  0  0  0  0  0  0  0  0
   -1.0170    2.6506    4.4598 H   0  0  0  0  0  0  0  0  0  0  0  0
   -0.9608    1.6083    5.9026 H   0  0  0  0  0  0  0  0  0  0  0  0
   -2.8291    0.2342    4.9875 H   0  0  0  0  0  0  0  0  0  0  0  0
   -1.5140    0.3275    3.8070 H   0  0  0  0  0  0  0  0  0  0  0  0
   -4.5530    2.6335    1.0953 H   0  0  0  0  0  0  0  0  0  0  0  0
   -3.2964    1.7410    0.2201 H   0  0  0  0  0  0  0  0  0  0  0  0
   -4.9673    1.6418   -0.3116 H   0  0  0  0  0  0  0  0  0  0  0  0
   -3.4049   -4.7572   -0.5574 H   0  0  0  0  0  0  0  0  0  0  0  0
   -2.4828   -4.4116   -2.0209 H   0  0  0  0  0  0  0  0  0  0  0  0
   -1.0381   -3.8903   -0.1824 H   0  0  0  0  0  0  0  0  0  0  0  0
   -0.9816   -2.1939   -1.9488 H   0  0  0  0  0  0  0  0  0  0  0  0
   -2.3164   -1.2922   -1.1595 H   0  0  0  0  0  0  0  0  0  0  0  0
   -0.2788   -0.5130    1.7710 H   0  0  0  0  0  0  0  0  0  0  0  0
   -1.8962   -0.2860    1.0608 H   0  0  0  0  0  0  0  0  0  0  0  0
   -0.6419   -2.9390    1.9381 H   0  0  0  0  0  0  0  0  0  0  0  0
   -2.0146   -2.0856    2.7164 H   0  0  0  0  0  0  0  0  0  0  0  0
   -6.7658   -4.8428   -4.0411 H   0  0  0  0  0  0  0  0  0  0  0  0
   -7.6728   -3.3212   -4.2974 H   0  0  0  0  0  0  0  0  0  0  0  0
   -5.1020   -4.1548   -5.7307 H   0  0  0  0  0  0  0  0  0  0  0  0
   -6.7092   -4.0639   -6.4641 H   0  0  0  0  0  0  0  0  0  0  0  0
   -6.7970   -1.6288   -6.0569 H   0  0  0  0  0  0  0  0  0  0  0  0
   -5.3102   -2.0117   -6.9473 H   0  0  0  0  0  0  0  0  0  0  0  0
    2.6031    2.1413   -0.3064 H   0  0  0  0  0  0  0  0  0  0  0  0
    1.5431    0.1910    0.7182 H   0  0  0  0  0  0  0  0  0  0  0  0
   -1.2386   -0.0892   -2.5364 H   0  0  0  0  0  0  0  0  0  0  0  0
  1  2  1  0  0  0  0
  2  3  1  0  0  0  0
  2  5  1  0  0  0  0
  3  4  1  0  0  0  0
  5  6  2  0  0  0  0
  5 10  1  0  0  0  0
  6  7  1  0  0  0  0
  7  8  2  0  0  0  0
  8  9  1  0  0  0  0
  9 10  2  0  0  0  0
 10 11  1  0  0  0  0
 11 12  1  0  0  0  0
 11 15  2  0  0  0  0
 12 13  1  0  0  0  0
 12 68  1  0  0  0  0
 13 14  1  0  0  0  0
 15 16  1  0  0  0  0
 15 67  1  0  0  0  0
 16 17  1  0  0  0  0
 17 18  1  0  0  0  0
 17 19  1  0  0  0  0
 17 20  1  0  0  0  0
 20 21  1  0  0  0  0
 21 22  1  0  0  0  0
 22 23  1  0  0  0  0
 22 66  2  0  0  0  0
 23 24  1  0  0  0  0
 23 65  1  0  0  0  0
 24 25  1  0  0  0  0
 25 26  1  0  0  0  0
 25 63  1  0  0  0  0
 26 27  1  0  0  0  0
 26 62  2  0  0  0  0
 27 28  1  0  0  0  0
 27 55  1  0  0  0  0
 28 29  1  0  0  0  0
 29 30  1  0  0  0  0
 29 54  2  0  0  0  0
 30 31  1  0  0  0  0
 30 34  1  0  0  0  0
 31 32  1  0  0  0  0
 31 33  1  0  0  0  0
 34 35  1  0  0  0  0
 34 53  1  0  0  0  0
 35 36  1  0  0  0  0
 35 52  2  0  0  0  0
 36 37  1  0  0  0  0
 36 51  1  0  0  0  0
 36 73  1  0  0  0  0
 37 38  1  0  0  0  0
 38 39  1  0  0  0  0
 39 40  1  0  0  0  0
 39 50  1  0  0  0  0
 40 41  1  0  0  0  0
 40 49  2  0  0  0  0
 42 43  1  0  0  0  0
 43 44  1  0  0  0  0
 43 47  1  0  0  0  0
 43 48  1  0  0  0  0
 44 45  1  0  0  0  0
 44 46  1  0  0  0  0
 50 51  1  0  0  0  0
 55 56  1  0  0  0  0
 56 57  1  0  0  0  0
 56 61  1  0  0  0  0
 57 58  1  0  0  0  0
 58 59  1  0  0  0  0
 58 71  1  0  0  0  0
 59 60  1  0  0  0  0
 60 61  1  0  0  0  0
 63 64  1  0  0  0  0
 64 65  1  0  0  0  0
 67 68  2  0  0  0  0
 67 72  1  0  0  0  0
 68 69  1  0  0  0  0
 69 70  2  0  0  0  0
 70 71  1  0  0  0  0
 71 72  2  0  0  0  0
 41 42  3  0  0  0  0
  1 74  1  0  0  0  0
  1 75  1  0  0  0  0
  1 76  1  0  0  0  0
  2 77  1  0  0  0  0
  4 78  1  0  0  0  0
  4 79  1  0  0  0  0
  4 80  1  0  0  0  0
  7 81  1  0  0  0  0
  8 82  1  0  0  0  0
  9 83  1  0  0  0  0
 13 84  1  0  0  0  0
 13 85  1  0  0  0  0
 14 86  1  0  0  0  0
 14 87  1  0  0  0  0
 14 88  1  0  0  0  0
 16 89  1  0  0  0  0
 16 90  1  0  0  0  0
 18 91  1  0  0  0  0
 18 92  1  0  0  0  0
 18 93  1  0  0  0  0
 19 94  1  0  0  0  0
 19 95  1  0  0  0  0
 19 96  1  0  0  0  0
 20 97  1  0  0  0  0
 20 98  1  0  0  0  0
 23 99  1  0  0  0  0
 24100  1  0  0  0  0
 27101  1  0  0  0  0
 28102  1  0  0  0  0
 30103  1  0  0  0  0
 31104  1  0  0  0  0
 32105  1  0  0  0  0
 32106  1  0  0  0  0
 32107  1  0  0  0  0
 33108  1  0  0  0  0
 33109  1  0  0  0  0
 33110  1  0  0  0  0
 37111  1  0  0  0  0
 37112  1  0  0  0  0
 38113  1  0  0  0  0
 38114  1  0  0  0  0
 45115  1  0  0  0  0
 45116  1  0  0  0  0
 45117  1  0  0  0  0
 46118  1  0  0  0  0
 46119  1  0  0  0  0
 46120  1  0  0  0  0
 47121  1  0  0  0  0
 47122  1  0  0  0  0
 47123  1  0  0  0  0
 48124  1  0  0  0  0
 48125  1  0  0  0  0
 48126  1  0  0  0  0
 50127  1  0  0  0  0
 50128  1  0  0  0  0
 51129  1  0  0  0  0
 51130  1  0  0  0  0
 53131  1  0  0  0  0
 53132  1  0  0  0  0
 53133  1  0  0  0  0
 55134  1  0  0  0  0
 55135  1  0  0  0  0
 56136  1  0  0  0  0
 57137  1  0  0  0  0
 57138  1  0  0  0  0
 59139  1  0  0  0  0
 59140  1  0  0  0  0
 60141  1  0  0  0  0
 60142  1  0  0  0  0
 63143  1  0  0  0  0
 63144  1  0  0  0  0
 64145  1  0  0  0  0
 64146  1  0  0  0  0
 65147  1  0  0  0  0
 65148  1  0  0  0  0
 69149  1  0  0  0  0
 70150  1  0  0  0  0
 72151  1  0  0  0  0
M  END
$$$$
