 energy: -221.289711457734 gnorm: 0.000373157026 xtb: 6.7.1 (edcfbbe)
          08232519013D

151157  0     0  0            999 V2000
    4.9911    3.4281   -2.7725 C   0  0  0  0  0  0  0  0  0  0  0  0
    4.5263    1.9695   -2.6759 C   0  0  0  0  0  0  0  0  0  0  0  0
    3.1313    1.8697   -2.4413 O   0  0  0  0  0  0  0  0  0  0  0  0
    2.3575    1.8193   -3.6093 C   0  0  0  0  0  0  0  0  0  0  0  0
    5.3119    1.2536   -1.5992 C   0  0  0  0  0  0  0  0  0  0  0  0
    6.2854    0.4968   -2.0915 N   0  0  0  0  0  0  0  0  0  0  0  0
    7.1197   -0.1187   -1.2764 C   0  0  0  0  0  0  0  0  0  0  0  0
    7.0432   -0.0039    0.1018 C   0  0  0  0  0  0  0  0  0  0  0  0
    6.0233    0.7693    0.6227 C   0  0  0  0  0  0  0  0  0  0  0  0
    5.1139    1.4084   -0.2222 C   0  0  0  0  0  0  0  0  0  0  0  0
    4.0455    2.2042    0.4010 C   0  0  0  0  0  0  0  0  0  0  0  0
    4.3582    3.4045    0.9995 N   0  0  0  0  0  0  0  0  0  0  0  0
    5.6369    4.0656    0.9855 C   0  0  0  0  0  0  0  0  0  0  0  0
    6.3354    3.9936    2.3430 C   0  0  0  0  0  0  0  0  0  0  0  0
    2.7226    1.8911    0.6220 C   0  0  0  0  0  0  0  0  0  0  0  0
    1.9327    0.7180    0.1317 C   0  0  0  0  0  0  0  0  0  0  0  0
    1.9050   -0.5343    1.0370 C   0  0  0  0  0  0  0  0  0  0  0  0
    1.1039   -1.6268    0.3244 C   0  0  0  0  0  0  0  0  0  0  0  0
    3.3267   -1.0385    1.2879 C   0  0  0  0  0  0  0  0  0  0  0  0
    1.2851   -0.2298    2.4168 C   0  0  0  0  0  0  0  0  0  0  0  0
   -0.1459   -0.3200    2.4787 O   0  0  0  0  0  0  0  0  0  0  0  0
   -0.6503   -1.4473    2.9746 C   0  0  0  0  0  0  0  0  0  0  0  0
   -2.1545   -1.3456    3.2018 C   0  0  0  0  0  0  0  0  0  0  0  0
   -2.8989   -0.8919    2.0359 N   0  0  0  0  0  0  0  0  0  0  0  0
   -4.2122   -0.5903    2.4171 N   0  0  0  0  0  0  0  0  0  0  0  0
   -4.6458    0.5894    2.9171 C   0  0  0  0  0  0  0  0  0  0  0  0
   -3.6524    1.7641    2.8346 C   0  0  0  0  0  0  0  0  0  0  0  0
   -4.0213    2.6043    1.7126 N   0  0  0  0  0  0  0  0  0  0  0  0
   -3.5605    2.3635    0.4784 C   0  0  0  0  0  0  0  0  0  0  0  0
   -4.0607    3.3326   -0.5962 C   0  0  0  0  0  0  0  0  0  0  0  0
   -5.2468    2.7386   -1.3732 C   0  0  0  0  0  0  0  0  0  0  0  0
   -5.7791    3.7642   -2.3730 C   0  0  0  0  0  0  0  0  0  0  0  0
   -6.3596    2.3366   -0.4056 C   0  0  0  0  0  0  0  0  0  0  0  0
   -2.9239    3.7126   -1.4373 N   0  0  0  0  0  0  0  0  0  0  0  0
   -2.2480    4.7999   -1.0255 C   0  0  0  0  0  0  0  0  0  0  0  0
   -0.9501    5.2260   -1.7341 C   0  0  0  0  0  0  0  0  0  0  0  0
    0.2203    4.3285   -1.3221 C   0  0  0  0  0  0  0  0  0  0  0  0
    1.5131    4.8176   -1.9745 C   0  0  0  0  0  0  0  0  0  0  0  0
    1.7594    6.1889   -1.6010 N   0  0  0  0  0  0  0  0  0  0  0  0
    2.8796    6.5296   -0.9302 C   0  0  0  0  0  0  0  0  0  0  0  0
    2.9241    7.8824   -0.4322 C   0  0  0  0  0  0  0  0  0  0  0  0
    3.1314    8.9360    0.1116 C   0  0  0  0  0  0  0  0  0  0  0  0
    3.2383   10.2315    0.7775 C   0  0  0  0  0  0  0  0  0  0  0  0
    4.5645   10.7869    0.4943 N   0  0  0  0  0  0  0  0  0  0  0  0
    4.8631   12.0423    1.1459 C   0  0  0  0  0  0  0  0  0  0  0  0
    4.8959   10.8511   -0.9130 C   0  0  0  0  0  0  0  0  0  0  0  0
    3.1020    9.9401    2.2828 C   0  0  0  0  0  0  0  0  0  0  0  0
    2.0594   11.1107    0.3084 C   0  0  0  0  0  0  0  0  0  0  0  0
    3.8075    5.7610   -0.7382 O   0  0  0  0  0  0  0  0  0  0  0  0
    0.7098    7.1019   -1.9754 C   0  0  0  0  0  0  0  0  0  0  0  0
   -0.6256    6.6773   -1.3664 C   0  0  0  0  0  0  0  0  0  0  0  0
   -2.6273    5.4679   -0.0721 O   0  0  0  0  0  0  0  0  0  0  0  0
   -2.5021    2.7597   -2.4414 C   0  0  0  0  0  0  0  0  0  0  0  0
   -2.7896    1.4464    0.2347 O   0  0  0  0  0  0  0  0  0  0  0  0
   -3.6492    2.5648    4.1346 C   0  0  0  0  0  0  0  0  0  0  0  0
   -2.6829    3.7602    4.1178 C   0  0  0  0  0  0  0  0  0  0  0  0
   -1.4404    3.4914    3.2658 C   0  0  0  0  0  0  0  0  0  0  0  0
   -0.5459    4.6316    3.2698 N   0  0  0  0  0  0  0  0  0  0  0  0
   -1.2646    5.8162    2.8144 C   0  0  0  0  0  0  0  0  0  0  0  0
   -2.5159    6.0215    3.6676 C   0  0  0  0  0  0  0  0  0  0  0  0
   -3.3665    4.8980    3.6284 O   0  0  0  0  0  0  0  0  0  0  0  0
   -5.7809    0.7454    3.3287 O   0  0  0  0  0  0  0  0  0  0  0  0
   -4.9364   -1.8160    2.7010 C   0  0  0  0  0  0  0  0  0  0  0  0
   -4.2556   -2.5252    3.8763 C   0  0  0  0  0  0  0  0  0  0  0  0
   -2.7618   -2.6964    3.5970 C   0  0  0  0  0  0  0  0  0  0  0  0
   -0.0010   -2.4040    3.3060 O   0  0  0  0  0  0  0  0  0  0  0  0
    2.1882    2.9758    1.3777 C   0  0  0  0  0  0  0  0  0  0  0  0
    3.2304    3.9067    1.5809 C   0  0  0  0  0  0  0  0  0  0  0  0
    2.9932    5.0938    2.2676 C   0  0  0  0  0  0  0  0  0  0  0  0
    1.7346    5.3119    2.7803 C   0  0  0  0  0  0  0  0  0  0  0  0
    0.6894    4.3818    2.6209 C   0  0  0  0  0  0  0  0  0  0  0  0
    0.9161    3.2259    1.8931 C   0  0  0  0  0  0  0  0  0  0  0  0
   -1.1171    5.1718   -3.1211 F   0  0  0  0  0  0  0  0  0  0  0  0
    4.7100    3.9812   -1.8802 H   0  0  0  0  0  0  0  0  0  0  0  0
    6.0714    3.4573   -2.8886 H   0  0  0  0  0  0  0  0  0  0  0  0
    4.5377    3.9091   -3.6365 H   0  0  0  0  0  0  0  0  0  0  0  0
    4.7752    1.4559   -3.6172 H   0  0  0  0  0  0  0  0  0  0  0  0
    1.3237    1.7043   -3.2877 H   0  0  0  0  0  0  0  0  0  0  0  0
    2.4505    2.7332   -4.2069 H   0  0  0  0  0  0  0  0  0  0  0  0
    2.6372    0.9627   -4.2359 H   0  0  0  0  0  0  0  0  0  0  0  0
    7.8818   -0.7193   -1.7554 H   0  0  0  0  0  0  0  0  0  0  0  0
    7.7513   -0.5039    0.7440 H   0  0  0  0  0  0  0  0  0  0  0  0
    5.9183    0.8818    1.6926 H   0  0  0  0  0  0  0  0  0  0  0  0
    6.2608    3.5970    0.2208 H   0  0  0  0  0  0  0  0  0  0  0  0
    5.4733    5.1090    0.7032 H   0  0  0  0  0  0  0  0  0  0  0  0
    5.6985    4.4080    3.1203 H   0  0  0  0  0  0  0  0  0  0  0  0
    6.5712    2.9648    2.6047 H   0  0  0  0  0  0  0  0  0  0  0  0
    7.2615    4.5615    2.3102 H   0  0  0  0  0  0  0  0  0  0  0  0
    0.9010    1.0454   -0.0171 H   0  0  0  0  0  0  0  0  0  0  0  0
    2.3331    0.4187   -0.8370 H   0  0  0  0  0  0  0  0  0  0  0  0
    1.0280   -2.5139    0.9491 H   0  0  0  0  0  0  0  0  0  0  0  0
    0.0990   -1.2807    0.0898 H   0  0  0  0  0  0  0  0  0  0  0  0
    1.5988   -1.9003   -0.6044 H   0  0  0  0  0  0  0  0  0  0  0  0
    3.8727   -0.3316    1.9062 H   0  0  0  0  0  0  0  0  0  0  0  0
    3.3045   -1.9999    1.7968 H   0  0  0  0  0  0  0  0  0  0  0  0
    3.8563   -1.1576    0.3463 H   0  0  0  0  0  0  0  0  0  0  0  0
    1.6836   -0.9370    3.1512 H   0  0  0  0  0  0  0  0  0  0  0  0
    1.5306    0.7898    2.7200 H   0  0  0  0  0  0  0  0  0  0  0  0
   -2.2657   -0.6386    4.0503 H   0  0  0  0  0  0  0  0  0  0  0  0
   -2.4752   -0.1430    1.4922 H   0  0  0  0  0  0  0  0  0  0  0  0
   -2.6482    1.3791    2.6434 H   0  0  0  0  0  0  0  0  0  0  0  0
   -4.5891    3.4116    1.9188 H   0  0  0  0  0  0  0  0  0  0  0  0
   -4.3928    4.2551   -0.1081 H   0  0  0  0  0  0  0  0  0  0  0  0
   -4.9164    1.8394   -1.9006 H   0  0  0  0  0  0  0  0  0  0  0  0
   -6.1897    4.6213   -1.8435 H   0  0  0  0  0  0  0  0  0  0  0  0
   -4.9968    4.1231   -3.0366 H   0  0  0  0  0  0  0  0  0  0  0  0
   -6.5687    3.3243   -2.9774 H   0  0  0  0  0  0  0  0  0  0  0  0
   -6.6851    3.1904    0.1848 H   0  0  0  0  0  0  0  0  0  0  0  0
   -7.2150    1.9675   -0.9663 H   0  0  0  0  0  0  0  0  0  0  0  0
   -6.0369    1.5502    0.2719 H   0  0  0  0  0  0  0  0  0  0  0  0
    0.3195    4.3741   -0.2357 H   0  0  0  0  0  0  0  0  0  0  0  0
    0.0490    3.2902   -1.6009 H   0  0  0  0  0  0  0  0  0  0  0  0
    2.3501    4.2033   -1.6412 H   0  0  0  0  0  0  0  0  0  0  0  0
    1.4224    4.7511   -3.0650 H   0  0  0  0  0  0  0  0  0  0  0  0
    4.6739   11.9712    2.2133 H   0  0  0  0  0  0  0  0  0  0  0  0
    5.9245   12.2483    1.0049 H   0  0  0  0  0  0  0  0  0  0  0  0
    4.2970   12.8937    0.7367 H   0  0  0  0  0  0  0  0  0  0  0  0
    5.9665   11.0357   -1.0042 H   0  0  0  0  0  0  0  0  0  0  0  0
    4.6687    9.8978   -1.3859 H   0  0  0  0  0  0  0  0  0  0  0  0
    4.3652   11.6528   -1.4504 H   0  0  0  0  0  0  0  0  0  0  0  0
    2.8987   10.8497    2.8417 H   0  0  0  0  0  0  0  0  0  0  0  0
    2.2799    9.2471    2.4469 H   0  0  0  0  0  0  0  0  0  0  0  0
    4.0190    9.4869    2.6494 H   0  0  0  0  0  0  0  0  0  0  0  0
    2.0781   12.0702    0.8196 H   0  0  0  0  0  0  0  0  0  0  0  0
    2.1091   11.2794   -0.7651 H   0  0  0  0  0  0  0  0  0  0  0  0
    1.1191   10.6144    0.5360 H   0  0  0  0  0  0  0  0  0  0  0  0
    0.9711    8.1087   -1.6443 H   0  0  0  0  0  0  0  0  0  0  0  0
    0.6202    7.1013   -3.0699 H   0  0  0  0  0  0  0  0  0  0  0  0
   -1.4235    7.3270   -1.7282 H   0  0  0  0  0  0  0  0  0  0  0  0
   -0.5872    6.7528   -0.2803 H   0  0  0  0  0  0  0  0  0  0  0  0
   -2.3113    1.7980   -1.9612 H   0  0  0  0  0  0  0  0  0  0  0  0
   -3.2845    2.6368   -3.1906 H   0  0  0  0  0  0  0  0  0  0  0  0
   -1.6080    3.0920   -2.9521 H   0  0  0  0  0  0  0  0  0  0  0  0
   -4.6571    2.9360    4.3283 H   0  0  0  0  0  0  0  0  0  0  0  0
   -3.3746    1.8931    4.9495 H   0  0  0  0  0  0  0  0  0  0  0  0
   -2.3580    3.9727    5.1517 H   0  0  0  0  0  0  0  0  0  0  0  0
   -0.9054    2.6299    3.6725 H   0  0  0  0  0  0  0  0  0  0  0  0
   -1.7670    3.2852    2.2369 H   0  0  0  0  0  0  0  0  0  0  0  0
   -0.6180    6.6899    2.8992 H   0  0  0  0  0  0  0  0  0  0  0  0
   -1.5863    5.7037    1.7680 H   0  0  0  0  0  0  0  0  0  0  0  0
   -2.2258    6.2242    4.7105 H   0  0  0  0  0  0  0  0  0  0  0  0
   -3.0995    6.8577    3.2801 H   0  0  0  0  0  0  0  0  0  0  0  0
   -5.9677   -1.5551    2.9377 H   0  0  0  0  0  0  0  0  0  0  0  0
   -4.8999   -2.4383    1.8048 H   0  0  0  0  0  0  0  0  0  0  0  0
   -4.3945   -1.9226    4.7772 H   0  0  0  0  0  0  0  0  0  0  0  0
   -4.7220   -3.4963    4.0409 H   0  0  0  0  0  0  0  0  0  0  0  0
   -2.6143   -3.3872    2.7664 H   0  0  0  0  0  0  0  0  0  0  0  0
   -2.2459   -3.0956    4.4697 H   0  0  0  0  0  0  0  0  0  0  0  0
    3.7688    5.8329    2.3965 H   0  0  0  0  0  0  0  0  0  0  0  0
    1.5420    6.2138    3.3418 H   0  0  0  0  0  0  0  0  0  0  0  0
    0.1396    2.5028    1.7060 H   0  0  0  0  0  0  0  0  0  0  0  0
  1  2  1  0  0  0  0
  2  3  1  0  0  0  0
  2  5  1  0  0  0  0
  3  4  1  0  0  0  0
  5  6  2  0  0  0  0
  5 10  1  0  0  0  0
  6  7  1  0  0  0  0
  7  8  2  0  0  0  0
  8  9  1  0  0  0  0
  9 10  2  0  0  0  0
 10 11  1  0  0  0  0
 11 12  1  0  0  0  0
 11 15  2  0  0  0  0
 12 13  1  0  0  0  0
 12 68  1  0  0  0  0
 13 14  1  0  0  0  0
 15 16  1  0  0  0  0
 15 67  1  0  0  0  0
 16 17  1  0  0  0  0
 17 18  1  0  0  0  0
 17 19  1  0  0  0  0
 17 20  1  0  0  0  0
 20 21  1  0  0  0  0
 21 22  1  0  0  0  0
 22 23  1  0  0  0  0
 22 66  2  0  0  0  0
 23 24  1  0  0  0  0
 23 65  1  0  0  0  0
 24 25  1  0  0  0  0
 25 26  1  0  0  0  0
 25 63  1  0  0  0  0
 26 27  1  0  0  0  0
 26 62  2  0  0  0  0
 27 28  1  0  0  0  0
 27 55  1  0  0  0  0
 28 29  1  0  0  0  0
 29 30  1  0  0  0  0
 29 54  2  0  0  0  0
 30 31  1  0  0  0  0
 30 34  1  0  0  0  0
 31 32  1  0  0  0  0
 31 33  1  0  0  0  0
 34 35  1  0  0  0  0
 34 53  1  0  0  0  0
 35 36  1  0  0  0  0
 35 52  2  0  0  0  0
 36 37  1  0  0  0  0
 36 51  1  0  0  0  0
 36 73  1  0  0  0  0
 37 38  1  0  0  0  0
 38 39  1  0  0  0  0
 39 40  1  0  0  0  0
 39 50  1  0  0  0  0
 40 41  1  0  0  0  0
 40 49  2  0  0  0  0
 42 43  1  0  0  0  0
 43 44  1  0  0  0  0
 43 47  1  0  0  0  0
 43 48  1  0  0  0  0
 44 45  1  0  0  0  0
 44 46  1  0  0  0  0
 50 51  1  0  0  0  0
 55 56  1  0  0  0  0
 56 57  1  0  0  0  0
 56 61  1  0  0  0  0
 57 58  1  0  0  0  0
 58 59  1  0  0  0  0
 58 71  1  0  0  0  0
 59 60  1  0  0  0  0
 60 61  1  0  0  0  0
 63 64  1  0  0  0  0
 64 65  1  0  0  0  0
 67 68  2  0  0  0  0
 67 72  1  0  0  0  0
 68 69  1  0  0  0  0
 69 70  2  0  0  0  0
 70 71  1  0  0  0  0
 71 72  2  0  0  0  0
 41 42  3  0  0  0  0
  1 74  1  0  0  0  0
  1 75  1  0  0  0  0
  1 76  1  0  0  0  0
  2 77  1  0  0  0  0
  4 78  1  0  0  0  0
  4 79  1  0  0  0  0
  4 80  1  0  0  0  0
  7 81  1  0  0  0  0
  8 82  1  0  0  0  0
  9 83  1  0  0  0  0
 13 84  1  0  0  0  0
 13 85  1  0  0  0  0
 14 86  1  0  0  0  0
 14 87  1  0  0  0  0
 14 88  1  0  0  0  0
 16 89  1  0  0  0  0
 16 90  1  0  0  0  0
 18 91  1  0  0  0  0
 18 92  1  0  0  0  0
 18 93  1  0  0  0  0
 19 94  1  0  0  0  0
 19 95  1  0  0  0  0
 19 96  1  0  0  0  0
 20 97  1  0  0  0  0
 20 98  1  0  0  0  0
 23 99  1  0  0  0  0
 24100  1  0  0  0  0
 27101  1  0  0  0  0
 28102  1  0  0  0  0
 30103  1  0  0  0  0
 31104  1  0  0  0  0
 32105  1  0  0  0  0
 32106  1  0  0  0  0
 32107  1  0  0  0  0
 33108  1  0  0  0  0
 33109  1  0  0  0  0
 33110  1  0  0  0  0
 37111  1  0  0  0  0
 37112  1  0  0  0  0
 38113  1  0  0  0  0
 38114  1  0  0  0  0
 45115  1  0  0  0  0
 45116  1  0  0  0  0
 45117  1  0  0  0  0
 46118  1  0  0  0  0
 46119  1  0  0  0  0
 46120  1  0  0  0  0
 47121  1  0  0  0  0
 47122  1  0  0  0  0
 47123  1  0  0  0  0
 48124  1  0  0  0  0
 48125  1  0  0  0  0
 48126  1  0  0  0  0
 50127  1  0  0  0  0
 50128  1  0  0  0  0
 51129  1  0  0  0  0
 51130  1  0  0  0  0
 53131  1  0  0  0  0
 53132  1  0  0  0  0
 53133  1  0  0  0  0
 55134  1  0  0  0  0
 55135  1  0  0  0  0
 56136  1  0  0  0  0
 57137  1  0  0  0  0
 57138  1  0  0  0  0
 59139  1  0  0  0  0
 59140  1  0  0  0  0
 60141  1  0  0  0  0
 60142  1  0  0  0  0
 63143  1  0  0  0  0
 63144  1  0  0  0  0
 64145  1  0  0  0  0
 64146  1  0  0  0  0
 65147  1  0  0  0  0
 65148  1  0  0  0  0
 69149  1  0  0  0  0
 70150  1  0  0  0  0
 72151  1  0  0  0  0
M  END
$$$$
