 xtb: 6.7.1 (edcfbbe)
          08232514423D

151157  0     0  0            999 V2000
   -0.7274    1.9673    5.7945 C   0  0  0  0  0  0  0  0  0  0  0  0
   -0.6053    0.4414    5.7004 C   0  0  0  0  0  0  0  0  0  0  0  0
    0.4275    0.0450    4.8124 O   0  0  0  0  0  0  0  0  0  0  0  0
    1.6758   -0.1241    5.4277 C   0  0  0  0  0  0  0  0  0  0  0  0
   -1.9341   -0.1556    5.2912 C   0  0  0  0  0  0  0  0  0  0  0  0
   -2.5929   -0.6904    6.3123 N   0  0  0  0  0  0  0  0  0  0  0  0
   -3.8088   -1.1697    6.1355 C   0  0  0  0  0  0  0  0  0  0  0  0
   -4.4593   -1.1313    4.9133 C   0  0  0  0  0  0  0  0  0  0  0  0
   -3.7750   -0.5896    3.8420 C   0  0  0  0  0  0  0  0  0  0  0  0
   -2.4774   -0.0999    4.0024 C   0  0  0  0  0  0  0  0  0  0  0  0
   -1.8054    0.4541    2.8173 C   0  0  0  0  0  0  0  0  0  0  0  0
   -2.2224    1.6656    2.3103 N   0  0  0  0  0  0  0  0  0  0  0  0
   -3.1840    2.5597    2.8996 C   0  0  0  0  0  0  0  0  0  0  0  0
   -4.5043    2.5728    2.1295 C   0  0  0  0  0  0  0  0  0  0  0  0
   -0.8588   -0.1078    1.9900 C   0  0  0  0  0  0  0  0  0  0  0  0
   -0.0965   -1.3859    2.1488 C   0  0  0  0  0  0  0  0  0  0  0  0
   -0.7284   -2.6565    1.5364 C   0  0  0  0  0  0  0  0  0  0  0  0
   -2.0948   -2.9247    2.1688 C   0  0  0  0  0  0  0  0  0  0  0  0
    0.1973   -3.8416    1.8229 C   0  0  0  0  0  0  0  0  0  0  0  0
   -0.9544   -2.5089    0.0169 C   0  0  0  0  0  0  0  0  0  0  0  0
    0.1675   -2.8617   -0.8056 O   0  0  0  0  0  0  0  0  0  0  0  0
    0.1433   -4.0725   -1.3570 C   0  0  0  0  0  0  0  0  0  0  0  0
    1.2678   -4.2576   -2.3705 C   0  0  0  0  0  0  0  0  0  0  0  0
    2.5911   -3.9814   -1.8282 N   0  0  0  0  0  0  0  0  0  0  0  0
    3.5238   -3.9538   -2.8724 N   0  0  0  0  0  0  0  0  0  0  0  0
    3.8267   -2.8839   -3.6427 C   0  0  0  0  0  0  0  0  0  0  0  0
    3.2421   -1.5331   -3.1876 C   0  0  0  0  0  0  0  0  0  0  0  0
    4.2827   -0.7677   -2.5308 N   0  0  0  0  0  0  0  0  0  0  0  0
    4.5271   -0.9064   -1.2214 C   0  0  0  0  0  0  0  0  0  0  0  0
    5.6662   -0.0375   -0.6812 C   0  0  0  0  0  0  0  0  0  0  0  0
    6.9694   -0.8419   -0.5518 C   0  0  0  0  0  0  0  0  0  0  0  0
    8.1089    0.0802   -0.1204 C   0  0  0  0  0  0  0  0  0  0  0  0
    7.3142   -1.4990   -1.8880 C   0  0  0  0  0  0  0  0  0  0  0  0
    5.2168    0.5773    0.5697 N   0  0  0  0  0  0  0  0  0  0  0  0
    4.5836    1.7552    0.4288 C   0  0  0  0  0  0  0  0  0  0  0  0
    3.9580    2.4556    1.6478 C   0  0  0  0  0  0  0  0  0  0  0  0
    3.7286    3.9336    1.3171 C   0  0  0  0  0  0  0  0  0  0  0  0
    3.0090    4.6383    2.4658 C   0  0  0  0  0  0  0  0  0  0  0  0
    1.7894    3.9518    2.8073 N   0  0  0  0  0  0  0  0  0  0  0  0
    0.5534    4.4856    2.7228 C   0  0  0  0  0  0  0  0  0  0  0  0
    0.4674    5.7847    2.1056 C   0  0  0  0  0  0  0  0  0  0  0  0
    0.2162    6.8087    1.5236 C   0  0  0  0  0  0  0  0  0  0  0  0
   -0.1761    8.0487    0.8572 C   0  0  0  0  0  0  0  0  0  0  0  0
   -1.5461    8.4359    1.2337 N   0  0  0  0  0  0  0  0  0  0  0  0
   -1.6868    8.7737    2.6387 C   0  0  0  0  0  0  0  0  0  0  0  0
   -2.5460    7.4510    0.8599 C   0  0  0  0  0  0  0  0  0  0  0  0
   -0.0964    7.8238   -0.6627 C   0  0  0  0  0  0  0  0  0  0  0  0
    0.8127    9.1636    1.2333 C   0  0  0  0  0  0  0  0  0  0  0  0
   -0.4532    3.9235    3.1256 O   0  0  0  0  0  0  0  0  0  0  0  0
    1.9734    2.5710    3.1808 C   0  0  0  0  0  0  0  0  0  0  0  0
    2.6228    1.8079    2.0262 C   0  0  0  0  0  0  0  0  0  0  0  0
    4.4732    2.2962   -0.6640 O   0  0  0  0  0  0  0  0  0  0  0  0
    5.2612   -0.2451    1.7592 C   0  0  0  0  0  0  0  0  0  0  0  0
    3.8779   -1.6596   -0.5099 O   0  0  0  0  0  0  0  0  0  0  0  0
    2.6724   -0.7706   -4.3818 C   0  0  0  0  0  0  0  0  0  0  0  0
    2.0480    0.5843   -4.0119 C   0  0  0  0  0  0  0  0  0  0  0  0
    1.4402    0.5818   -2.6077 C   0  0  0  0  0  0  0  0  0  0  0  0
    0.8489    1.8675   -2.2966 N   0  0  0  0  0  0  0  0  0  0  0  0
    1.8570    2.9121   -2.4382 C   0  0  0  0  0  0  0  0  0  0  0  0
    2.4680    2.8510   -3.8381 C   0  0  0  0  0  0  0  0  0  0  0  0
    3.0383    1.5900   -4.1064 O   0  0  0  0  0  0  0  0  0  0  0  0
    4.5807   -2.9599   -4.5955 O   0  0  0  0  0  0  0  0  0  0  0  0
    3.7458   -5.2985   -3.3721 C   0  0  0  0  0  0  0  0  0  0  0  0
    2.4258   -5.8272   -3.9423 C   0  0  0  0  0  0  0  0  0  0  0  0
    1.3119   -5.6942   -2.9033 C   0  0  0  0  0  0  0  0  0  0  0  0
   -0.7095   -4.8986   -1.1647 O   0  0  0  0  0  0  0  0  0  0  0  0
   -0.6657    0.8263    0.9297 C   0  0  0  0  0  0  0  0  0  0  0  0
   -1.5197    1.9246    1.1695 C   0  0  0  0  0  0  0  0  0  0  0  0
   -1.5261    3.0157    0.3057 C   0  0  0  0  0  0  0  0  0  0  0  0
   -0.7115    2.9772   -0.8029 C   0  0  0  0  0  0  0  0  0  0  0  0
    0.1237    1.8779   -1.0799 C   0  0  0  0  0  0  0  0  0  0  0  0
    0.1603    0.8140   -0.1944 C   0  0  0  0  0  0  0  0  0  0  0  0
    4.8314    2.3999    2.7378 F   0  0  0  0  0  0  0  0  0  0  0  0
   -1.5648    2.2252    6.4374 H   0  0  0  0  0  0  0  0  0  0  0  0
    0.1795    2.3895    6.2222 H   0  0  0  0  0  0  0  0  0  0  0  0
   -0.8814    2.4024    4.8107 H   0  0  0  0  0  0  0  0  0  0  0  0
   -0.3965    0.0407    6.7039 H   0  0  0  0  0  0  0  0  0  0  0  0
    1.6326   -0.8898    6.2127 H   0  0  0  0  0  0  0  0  0  0  0  0
    2.3614   -0.4504    4.6475 H   0  0  0  0  0  0  0  0  0  0  0  0
    2.0484    0.8071    5.8694 H   0  0  0  0  0  0  0  0  0  0  0  0
   -4.2763   -1.5916    7.0155 H   0  0  0  0  0  0  0  0  0  0  0  0
   -5.4618   -1.5140    4.8023 H   0  0  0  0  0  0  0  0  0  0  0  0
   -4.2394   -0.5440    2.8667 H   0  0  0  0  0  0  0  0  0  0  0  0
   -3.3594    2.2493    3.9324 H   0  0  0  0  0  0  0  0  0  0  0  0
   -2.7468    3.5618    2.9123 H   0  0  0  0  0  0  0  0  0  0  0  0
   -5.1761    3.3094    2.5624 H   0  0  0  0  0  0  0  0  0  0  0  0
   -4.3336    2.8255    1.0861 H   0  0  0  0  0  0  0  0  0  0  0  0
   -4.9871    1.5994    2.1722 H   0  0  0  0  0  0  0  0  0  0  0  0
    0.8864   -1.2489    1.6920 H   0  0  0  0  0  0  0  0  0  0  0  0
    0.0501   -1.5673    3.2136 H   0  0  0  0  0  0  0  0  0  0  0  0
   -2.0176   -2.9156    3.2531 H   0  0  0  0  0  0  0  0  0  0  0  0
   -2.8061   -2.1618    1.8661 H   0  0  0  0  0  0  0  0  0  0  0  0
   -2.4737   -3.8956    1.8567 H   0  0  0  0  0  0  0  0  0  0  0  0
    0.2788   -3.9946    2.8964 H   0  0  0  0  0  0  0  0  0  0  0  0
   -0.1963   -4.7509    1.3739 H   0  0  0  0  0  0  0  0  0  0  0  0
    1.1938   -3.6614    1.4243 H   0  0  0  0  0  0  0  0  0  0  0  0
   -1.7880   -3.1512   -0.2845 H   0  0  0  0  0  0  0  0  0  0  0  0
   -1.1858   -1.4705   -0.2282 H   0  0  0  0  0  0  0  0  0  0  0  0
    1.0215   -3.5687   -3.2048 H   0  0  0  0  0  0  0  0  0  0  0  0
    2.6690   -3.1645   -1.2259 H   0  0  0  0  0  0  0  0  0  0  0  0
    2.4502   -1.7068   -2.4556 H   0  0  0  0  0  0  0  0  0  0  0  0
    4.7705   -0.0878   -3.0931 H   0  0  0  0  0  0  0  0  0  0  0  0
    5.8360    0.7900   -1.3783 H   0  0  0  0  0  0  0  0  0  0  0  0
    6.8303   -1.6344    0.1884 H   0  0  0  0  0  0  0  0  0  0  0  0
    7.8655    0.6214    0.7901 H   0  0  0  0  0  0  0  0  0  0  0  0
    9.0138   -0.4972    0.0533 H   0  0  0  0  0  0  0  0  0  0  0  0
    8.3129    0.8103   -0.9008 H   0  0  0  0  0  0  0  0  0  0  0  0
    8.2640   -2.0216   -1.8035 H   0  0  0  0  0  0  0  0  0  0  0  0
    6.5578   -2.2209   -2.1853 H   0  0  0  0  0  0  0  0  0  0  0  0
    7.4075   -0.7522   -2.6736 H   0  0  0  0  0  0  0  0  0  0  0  0
    4.6900    4.4133    1.1294 H   0  0  0  0  0  0  0  0  0  0  0  0
    3.1326    3.9907    0.4069 H   0  0  0  0  0  0  0  0  0  0  0  0
    3.6625    4.6458    3.3481 H   0  0  0  0  0  0  0  0  0  0  0  0
    2.7790    5.6689    2.1891 H   0  0  0  0  0  0  0  0  0  0  0  0
   -1.4188    7.9430    3.3081 H   0  0  0  0  0  0  0  0  0  0  0  0
   -1.0751    9.6388    2.8813 H   0  0  0  0  0  0  0  0  0  0  0  0
   -2.7264    9.0412    2.8225 H   0  0  0  0  0  0  0  0  0  0  0  0
   -3.5221    7.8210    1.1709 H   0  0  0  0  0  0  0  0  0  0  0  0
   -2.5669    7.3267   -0.2196 H   0  0  0  0  0  0  0  0  0  0  0  0
   -2.3783    6.4724    1.3323 H   0  0  0  0  0  0  0  0  0  0  0  0
   -0.5842    6.8976   -0.9537 H   0  0  0  0  0  0  0  0  0  0  0  0
   -0.5705    8.6580   -1.1730 H   0  0  0  0  0  0  0  0  0  0  0  0
    0.9443    7.7628   -0.9719 H   0  0  0  0  0  0  0  0  0  0  0  0
    0.9735    9.2100    2.3069 H   0  0  0  0  0  0  0  0  0  0  0  0
    1.7737    8.9763    0.7600 H   0  0  0  0  0  0  0  0  0  0  0  0
    0.4275   10.1181    0.8847 H   0  0  0  0  0  0  0  0  0  0  0  0
    2.6179    2.5192    4.0658 H   0  0  0  0  0  0  0  0  0  0  0  0
    1.0022    2.1324    3.4115 H   0  0  0  0  0  0  0  0  0  0  0  0
    1.9681    1.8419    1.1530 H   0  0  0  0  0  0  0  0  0  0  0  0
    2.7484    0.7650    2.3122 H   0  0  0  0  0  0  0  0  0  0  0  0
    4.7946    0.2501    2.6007 H   0  0  0  0  0  0  0  0  0  0  0  0
    4.7415   -1.1841    1.5594 H   0  0  0  0  0  0  0  0  0  0  0  0
    6.2959   -0.4562    2.0310 H   0  0  0  0  0  0  0  0  0  0  0  0
    3.4683   -0.5989   -5.1086 H   0  0  0  0  0  0  0  0  0  0  0  0
    1.9143   -1.3970   -4.8550 H   0  0  0  0  0  0  0  0  0  0  0  0
    1.2488    0.8201   -4.7367 H   0  0  0  0  0  0  0  0  0  0  0  0
    0.6596   -0.1808   -2.5547 H   0  0  0  0  0  0  0  0  0  0  0  0
    2.2400    0.3596   -1.8869 H   0  0  0  0  0  0  0  0  0  0  0  0
    1.3967    3.8879   -2.2821 H   0  0  0  0  0  0  0  0  0  0  0  0
    2.6704    2.7731   -1.7101 H   0  0  0  0  0  0  0  0  0  0  0  0
    1.6946    3.0702   -4.5909 H   0  0  0  0  0  0  0  0  0  0  0  0
    3.2791    3.5753   -3.9243 H   0  0  0  0  0  0  0  0  0  0  0  0
    4.5206   -5.2540   -4.1371 H   0  0  0  0  0  0  0  0  0  0  0  0
    4.0762   -5.9151   -2.5341 H   0  0  0  0  0  0  0  0  0  0  0  0
    2.1709   -5.2463   -4.8321 H   0  0  0  0  0  0  0  0  0  0  0  0
    2.5421   -6.8695   -4.2381 H   0  0  0  0  0  0  0  0  0  0  0  0
    1.5063   -6.3587   -2.0610 H   0  0  0  0  0  0  0  0  0  0  0  0
    0.3463   -5.9606   -3.3322 H   0  0  0  0  0  0  0  0  0  0  0  0
   -2.1499    3.8766    0.4925 H   0  0  0  0  0  0  0  0  0  0  0  0
   -0.7240    3.8030   -1.4984 H   0  0  0  0  0  0  0  0  0  0  0  0
    0.8089   -0.0336   -0.3417 H   0  0  0  0  0  0  0  0  0  0  0  0
  1  2  1  0  0  0  0
  2  3  1  0  0  0  0
  3  4  1  0  0  0  0
  2  5  1  0  0  0  0
  5  6  4  0  0  0  0
  6  7  4  0  0  0  0
  7  8  4  0  0  0  0
  8  9  4  0  0  0  0
  5 10  4  0  0  0  0
  9 10  4  0  0  0  0
 10 11  1  0  0  0  0
 11 12  1  0  0  0  0
 12 13  1  0  0  0  0
 13 14  1  0  0  0  0
 11 15  2  0  0  0  0
 15 16  1  0  0  0  0
 16 17  1  0  0  0  0
 17 18  1  0  0  0  0
 17 19  1  0  0  0  0
 17 20  1  0  0  0  0
 20 21  1  0  0  0  0
 21 22  1  0  0  0  0
 22 23  1  0  0  0  0
 23 24  1  0  0  0  0
 24 25  1  0  0  0  0
 25 26  4  0  0  0  0
 26 27  1  0  0  0  0
 27 28  1  0  0  0  0
 28 29  4  0  0  0  0
 29 30  1  0  0  0  0
 30 31  1  0  0  0  0
 31 32  1  0  0  0  0
 31 33  1  0  0  0  0
 30 34  1  0  0  0  0
 34 35  4  0  0  0  0
 35 36  1  0  0  0  0
 36 37  1  0  0  0  0
 37 38  1  0  0  0  0
 38 39  1  0  0  0  0
 39 40  4  0  0  0  0
 40 41  1  0  0  0  0
 41 42  3  0  0  0  0
 42 43  1  0  0  0  0
 43 44  1  0  0  0  0
 44 45  1  0  0  0  0
 44 46  1  0  0  0  0
 43 47  1  0  0  0  0
 43 48  1  0  0  0  0
 40 49  2  0  0  0  0
 39 50  1  0  0  0  0
 36 51  1  0  0  0  0
 50 51  1  0  0  0  0
 35 52  2  0  0  0  0
 34 53  1  0  0  0  0
 29 54  2  0  0  0  0
 27 55  1  0  0  0  0
 55 56  1  0  0  0  0
 56 57  1  0  0  0  0
 57 58  1  0  0  0  0
 58 59  1  0  0  0  0
 59 60  1  0  0  0  0
 56 61  1  0  0  0  0
 60 61  1  0  0  0  0
 26 62  2  0  0  0  0
 25 63  1  0  0  0  0
 63 64  1  0  0  0  0
 23 65  1  0  0  0  0
 64 65  1  0  0  0  0
 22 66  2  0  0  0  0
 15 67  4  0  0  0  0
 12 68  1  0  0  0  0
 67 68  4  0  0  0  0
 68 69  4  0  0  0  0
 69 70  2  0  0  0  0
 58 71  1  0  0  0  0
 70 71  4  0  0  0  0
 67 72  4  0  0  0  0
 71 72  4  0  0  0  0
 36 73  1  0  0  0  0
  1 74  1  0  0  0  0
  1 75  1  0  0  0  0
  1 76  1  0  0  0  0
  2 77  1  0  0  0  0
  4 78  1  0  0  0  0
  4 79  1  0  0  0  0
  4 80  1  0  0  0  0
  7 81  1  0  0  0  0
  8 82  1  0  0  0  0
  9 83  1  0  0  0  0
 13 84  1  0  0  0  0
 13 85  1  0  0  0  0
 14 86  1  0  0  0  0
 14 87  1  0  0  0  0
 14 88  1  0  0  0  0
 16 89  1  0  0  0  0
 16 90  1  0  0  0  0
 18 91  1  0  0  0  0
 18 92  1  0  0  0  0
 18 93  1  0  0  0  0
 19 94  1  0  0  0  0
 19 95  1  0  0  0  0
 19 96  1  0  0  0  0
 20 97  1  0  0  0  0
 20 98  1  0  0  0  0
 23 99  1  0  0  0  0
 24100  1  0  0  0  0
 27101  1  0  0  0  0
 28102  1  0  0  0  0
 30103  1  0  0  0  0
 31104  1  0  0  0  0
 32105  1  0  0  0  0
 32106  1  0  0  0  0
 32107  1  0  0  0  0
 33108  1  0  0  0  0
 33109  1  0  0  0  0
 33110  1  0  0  0  0
 37111  1  0  0  0  0
 37112  1  0  0  0  0
 38113  1  0  0  0  0
 38114  1  0  0  0  0
 45115  1  0  0  0  0
 45116  1  0  0  0  0
 45117  1  0  0  0  0
 46118  1  0  0  0  0
 46119  1  0  0  0  0
 46120  1  0  0  0  0
 47121  1  0  0  0  0
 47122  1  0  0  0  0
 47123  1  0  0  0  0
 48124  1  0  0  0  0
 48125  1  0  0  0  0
 48126  1  0  0  0  0
 50127  1  0  0  0  0
 50128  1  0  0  0  0
 51129  1  0  0  0  0
 51130  1  0  0  0  0
 53131  1  0  0  0  0
 53132  1  0  0  0  0
 53133  1  0  0  0  0
 55134  1  0  0  0  0
 55135  1  0  0  0  0
 56136  1  0  0  0  0
 57137  1  0  0  0  0
 57138  1  0  0  0  0
 59139  1  0  0  0  0
 59140  1  0  0  0  0
 60141  1  0  0  0  0
 60142  1  0  0  0  0
 63143  1  0  0  0  0
 63144  1  0  0  0  0
 64145  1  0  0  0  0
 64146  1  0  0  0  0
 65147  1  0  0  0  0
 65148  1  0  0  0  0
 69149  1  0  0  0  0
 70150  1  0  0  0  0
 72151  1  0  0  0  0
M  END
$$$$
