 xtb: 6.7.1 (edcfbbe)
          08182523163D

151157  0     0  0            999 V2000
    0.4170   14.9416  -13.1578 C   0  0  0  0  0  0  0  0  0  0  0  0
   -0.0320   14.1880  -11.9081 C   0  0  0  0  0  0  0  0  0  0  0  0
   -0.8137   15.0026  -11.0455 O   0  0  0  0  0  0  0  0  0  0  0  0
   -2.1761   15.0622  -11.3792 C   0  0  0  0  0  0  0  0  0  0  0  0
    1.1529   13.6957  -11.0990 C   0  0  0  0  0  0  0  0  0  0  0  0
    2.3498   14.1456  -11.4333 N   0  0  0  0  0  0  0  0  0  0  0  0
    3.4081   13.7288  -10.7624 C   0  0  0  0  0  0  0  0  0  0  0  0
    3.3350   12.8230   -9.7170 C   0  0  0  0  0  0  0  0  0  0  0  0
    2.0850   12.3446   -9.3603 C   0  0  0  0  0  0  0  0  0  0  0  0
    0.9596   12.7868  -10.0488 C   0  0  0  0  0  0  0  0  0  0  0  0
   -0.3801   12.2741   -9.7276 C   0  0  0  0  0  0  0  0  0  0  0  0
   -0.8359   11.1436  -10.3735 N   0  0  0  0  0  0  0  0  0  0  0  0
   -0.0759   10.3162  -11.2714 C   0  0  0  0  0  0  0  0  0  0  0  0
    0.5794    9.1429  -10.5437 C   0  0  0  0  0  0  0  0  0  0  0  0
   -1.3492   12.7652   -8.8873 C   0  0  0  0  0  0  0  0  0  0  0  0
   -1.3370   13.9908   -8.0295 C   0  0  0  0  0  0  0  0  0  0  0  0
   -0.4124   13.9966   -6.7794 C   0  0  0  0  0  0  0  0  0  0  0  0
   -1.1076   14.7706   -5.6547 C   0  0  0  0  0  0  0  0  0  0  0  0
    0.8982   14.7174   -7.1145 C   0  0  0  0  0  0  0  0  0  0  0  0
   -0.0602   12.5788   -6.2872 C   0  0  0  0  0  0  0  0  0  0  0  0
   -0.9562   12.0932   -5.2817 O   0  0  0  0  0  0  0  0  0  0  0  0
   -1.4380   10.8674   -5.4060 C   0  0  0  0  0  0  0  0  0  0  0  0
   -2.2322   10.4642   -4.1656 C   0  0  0  0  0  0  0  0  0  0  0  0
   -2.4140    9.0208   -4.2034 N   0  0  0  0  0  0  0  0  0  0  0  0
   -3.2287    8.5546   -3.1662 N   0  0  0  0  0  0  0  0  0  0  0  0
   -4.4936    8.1077   -3.2547 C   0  0  0  0  0  0  0  0  0  0  0  0
   -5.1777    8.2448   -4.6180 C   0  0  0  0  0  0  0  0  0  0  0  0
   -6.2475    7.2847   -4.7121 N   0  0  0  0  0  0  0  0  0  0  0  0
   -6.3648    6.4496   -5.7598 C   0  0  0  0  0  0  0  0  0  0  0  0
   -7.6015    5.5461   -5.7064 C   0  0  0  0  0  0  0  0  0  0  0  0
   -7.3112    4.1836   -5.0512 C   0  0  0  0  0  0  0  0  0  0  0  0
   -8.5296    3.2710   -5.1807 C   0  0  0  0  0  0  0  0  0  0  0  0
   -6.9635    4.3779   -3.5759 C   0  0  0  0  0  0  0  0  0  0  0  0
   -8.1523    5.4513   -7.0565 N   0  0  0  0  0  0  0  0  0  0  0  0
   -9.1256    6.3349   -7.3498 C   0  0  0  0  0  0  0  0  0  0  0  0
   -9.7827    6.3167   -8.7423 C   0  0  0  0  0  0  0  0  0  0  0  0
  -10.3939    7.6872   -9.0484 C   0  0  0  0  0  0  0  0  0  0  0  0
  -11.1934    7.6314  -10.3521 C   0  0  0  0  0  0  0  0  0  0  0  0
  -12.1896    6.5931  -10.2863 N   0  0  0  0  0  0  0  0  0  0  0  0
  -13.5309    6.7945  -10.2852 C   0  0  0  0  0  0  0  0  0  0  0  0
  -13.9407    8.1627  -10.4917 C   0  0  0  0  0  0  0  0  0  0  0  0
  -14.4354    9.2389  -10.7098 C   0  0  0  0  0  0  0  0  0  0  0  0
  -14.9693   10.5955  -10.8234 C   0  0  0  0  0  0  0  0  0  0  0  0
  -15.2389   11.1623   -9.4907 N   0  0  0  0  0  0  0  0  0  0  0  0
  -16.2906   10.4701   -8.7664 C   0  0  0  0  0  0  0  0  0  0  0  0
  -14.0566   11.2838   -8.6583 C   0  0  0  0  0  0  0  0  0  0  0  0
  -13.9536   11.4766  -11.5697 C   0  0  0  0  0  0  0  0  0  0  0  0
  -16.2639   10.5477  -11.6498 C   0  0  0  0  0  0  0  0  0  0  0  0
  -14.3409    5.8960  -10.1415 O   0  0  0  0  0  0  0  0  0  0  0  0
  -11.6557    5.2730  -10.0578 C   0  0  0  0  0  0  0  0  0  0  0  0
  -10.8719    5.2360   -8.7447 C   0  0  0  0  0  0  0  0  0  0  0  0
   -9.5968    7.0901   -6.5102 O   0  0  0  0  0  0  0  0  0  0  0  0
   -7.4252    4.6776   -8.0417 C   0  0  0  0  0  0  0  0  0  0  0  0
   -5.5888    6.4546   -6.6950 O   0  0  0  0  0  0  0  0  0  0  0  0
   -5.7222    9.6838   -4.7336 C   0  0  0  0  0  0  0  0  0  0  0  0
   -5.3130   10.3713   -6.0407 C   0  0  0  0  0  0  0  0  0  0  0  0
   -6.0954    9.8561   -7.2617 C   0  0  0  0  0  0  0  0  0  0  0  0
   -5.9716   10.8095   -8.3476 N   0  0  0  0  0  0  0  0  0  0  0  0
   -6.6404   12.0525   -7.9995 C   0  0  0  0  0  0  0  0  0  0  0  0
   -6.5917   12.3317   -6.4820 C   0  0  0  0  0  0  0  0  0  0  0  0
   -5.4301   11.7845   -5.8980 O   0  0  0  0  0  0  0  0  0  0  0  0
   -5.0915    7.6360   -2.3005 O   0  0  0  0  0  0  0  0  0  0  0  0
   -2.5696    8.7351   -1.8872 C   0  0  0  0  0  0  0  0  0  0  0  0
   -2.2982   10.2277   -1.6809 C   0  0  0  0  0  0  0  0  0  0  0  0
   -1.4966   10.7844   -2.8589 C   0  0  0  0  0  0  0  0  0  0  0  0
   -1.2816   10.1442   -6.3553 O   0  0  0  0  0  0  0  0  0  0  0  0
   -2.4742   11.8946   -9.0298 C   0  0  0  0  0  0  0  0  0  0  0  0
   -2.1094   10.8856   -9.9490 C   0  0  0  0  0  0  0  0  0  0  0  0
   -2.9910    9.8679  -10.2945 C   0  0  0  0  0  0  0  0  0  0  0  0
   -4.2460    9.8881   -9.7333 C   0  0  0  0  0  0  0  0  0  0  0  0
   -4.6384   10.8988   -8.8405 C   0  0  0  0  0  0  0  0  0  0  0  0
   -3.7543   11.8964   -8.4786 C   0  0  0  0  0  0  0  0  0  0  0  0
   -8.8747    6.0428   -9.7595 F   0  0  0  0  0  0  0  0  0  0  0  0
    1.0030   15.8066  -12.8642 H   0  0  0  0  0  0  0  0  0  0  0  0
    1.0324   14.2947  -13.7754 H   0  0  0  0  0  0  0  0  0  0  0  0
   -0.4455   15.2682  -13.7334 H   0  0  0  0  0  0  0  0  0  0  0  0
   -0.6323   13.3094  -12.2031 H   0  0  0  0  0  0  0  0  0  0  0  0
   -2.6390   14.0684  -11.3316 H   0  0  0  0  0  0  0  0  0  0  0  0
   -2.6431   15.7096  -10.6395 H   0  0  0  0  0  0  0  0  0  0  0  0
   -2.3378   15.4843  -12.3768 H   0  0  0  0  0  0  0  0  0  0  0  0
    4.3553   14.1376  -11.0888 H   0  0  0  0  0  0  0  0  0  0  0  0
    4.2245   12.4982   -9.2002 H   0  0  0  0  0  0  0  0  0  0  0  0
    1.9757   11.6332   -8.5534 H   0  0  0  0  0  0  0  0  0  0  0  0
   -0.7525    9.9399  -12.0450 H   0  0  0  0  0  0  0  0  0  0  0  0
    0.6894   10.9318  -11.7545 H   0  0  0  0  0  0  0  0  0  0  0  0
    1.3134    9.5034   -9.8277 H   0  0  0  0  0  0  0  0  0  0  0  0
   -0.1724    8.5707  -10.0061 H   0  0  0  0  0  0  0  0  0  0  0  0
    1.0784    8.4919  -11.2568 H   0  0  0  0  0  0  0  0  0  0  0  0
   -1.0569   14.8429   -8.6525 H   0  0  0  0  0  0  0  0  0  0  0  0
   -2.3636   14.1472   -7.6955 H   0  0  0  0  0  0  0  0  0  0  0  0
   -0.4707   14.8150   -4.7740 H   0  0  0  0  0  0  0  0  0  0  0  0
   -1.3193   15.7858   -5.9818 H   0  0  0  0  0  0  0  0  0  0  0  0
   -2.0419   14.2911   -5.3747 H   0  0  0  0  0  0  0  0  0  0  0  0
    1.5374   14.7836   -6.2358 H   0  0  0  0  0  0  0  0  0  0  0  0
    1.4395   14.1983   -7.8987 H   0  0  0  0  0  0  0  0  0  0  0  0
    0.6896   15.7272   -7.4588 H   0  0  0  0  0  0  0  0  0  0  0  0
   -0.0564   11.8692   -7.1190 H   0  0  0  0  0  0  0  0  0  0  0  0
    0.9298   12.5913   -5.8182 H   0  0  0  0  0  0  0  0  0  0  0  0
   -3.1828   11.0255   -4.1934 H   0  0  0  0  0  0  0  0  0  0  0  0
   -2.6971    8.6907   -5.1186 H   0  0  0  0  0  0  0  0  0  0  0  0
   -4.4998    8.0157   -5.4459 H   0  0  0  0  0  0  0  0  0  0  0  0
   -6.8340    7.1985   -3.8952 H   0  0  0  0  0  0  0  0  0  0  0  0
   -8.3749    6.0504   -5.1168 H   0  0  0  0  0  0  0  0  0  0  0  0
   -6.4503    3.7157   -5.5394 H   0  0  0  0  0  0  0  0  0  0  0  0
   -9.3968    3.7375   -4.7185 H   0  0  0  0  0  0  0  0  0  0  0  0
   -8.7652    3.0673   -6.2213 H   0  0  0  0  0  0  0  0  0  0  0  0
   -8.3411    2.3237   -4.6814 H   0  0  0  0  0  0  0  0  0  0  0  0
   -7.7855    4.8563   -3.0474 H   0  0  0  0  0  0  0  0  0  0  0  0
   -6.7829    3.4108   -3.1124 H   0  0  0  0  0  0  0  0  0  0  0  0
   -6.0688    4.9817   -3.4496 H   0  0  0  0  0  0  0  0  0  0  0  0
  -11.0328    7.9712   -8.2128 H   0  0  0  0  0  0  0  0  0  0  0  0
   -9.5907    8.4204   -9.1372 H   0  0  0  0  0  0  0  0  0  0  0  0
  -11.6813    8.5895  -10.5382 H   0  0  0  0  0  0  0  0  0  0  0  0
  -10.5110    7.4138  -11.1832 H   0  0  0  0  0  0  0  0  0  0  0  0
  -16.3996   10.9414   -7.7907 H   0  0  0  0  0  0  0  0  0  0  0  0
  -17.2368   10.5726   -9.2912 H   0  0  0  0  0  0  0  0  0  0  0  0
  -16.0773    9.4026   -8.6149 H   0  0  0  0  0  0  0  0  0  0  0  0
  -14.3505   11.7427   -7.7152 H   0  0  0  0  0  0  0  0  0  0  0  0
  -13.5814   10.3160   -8.4393 H   0  0  0  0  0  0  0  0  0  0  0  0
  -13.3278   11.9370   -9.1312 H   0  0  0  0  0  0  0  0  0  0  0  0
  -12.9522   11.3736  -11.1603 H   0  0  0  0  0  0  0  0  0  0  0  0
  -13.9157   11.1854  -12.6165 H   0  0  0  0  0  0  0  0  0  0  0  0
  -14.2636   12.5160  -11.5019 H   0  0  0  0  0  0  0  0  0  0  0  0
  -16.9322    9.7675  -11.2970 H   0  0  0  0  0  0  0  0  0  0  0  0
  -16.7657   11.5101  -11.5911 H   0  0  0  0  0  0  0  0  0  0  0  0
  -16.0256   10.3352  -12.6892 H   0  0  0  0  0  0  0  0  0  0  0  0
  -12.4937    4.5739  -10.0239 H   0  0  0  0  0  0  0  0  0  0  0  0
  -10.9917    5.0069  -10.8887 H   0  0  0  0  0  0  0  0  0  0  0  0
  -10.4247    4.2500   -8.6119 H   0  0  0  0  0  0  0  0  0  0  0  0
  -11.5398    5.4312   -7.9046 H   0  0  0  0  0  0  0  0  0  0  0  0
   -8.1063    4.0952   -8.6608 H   0  0  0  0  0  0  0  0  0  0  0  0
   -6.8228    5.3240   -8.6806 H   0  0  0  0  0  0  0  0  0  0  0  0
   -6.7532    3.9977   -7.5296 H   0  0  0  0  0  0  0  0  0  0  0  0
   -6.8114    9.6547   -4.6607 H   0  0  0  0  0  0  0  0  0  0  0  0
   -5.3618   10.2947   -3.9015 H   0  0  0  0  0  0  0  0  0  0  0  0
   -4.2435   10.2034   -6.2286 H   0  0  0  0  0  0  0  0  0  0  0  0
   -5.6988    8.8884   -7.5704 H   0  0  0  0  0  0  0  0  0  0  0  0
   -7.1570    9.7353   -7.0249 H   0  0  0  0  0  0  0  0  0  0  0  0
   -6.1853   12.8664   -8.5646 H   0  0  0  0  0  0  0  0  0  0  0  0
   -7.6896   11.9660   -8.3109 H   0  0  0  0  0  0  0  0  0  0  0  0
   -6.5401   13.4031   -6.2784 H   0  0  0  0  0  0  0  0  0  0  0  0
   -7.4882   11.9289   -5.9905 H   0  0  0  0  0  0  0  0  0  0  0  0
   -3.2262    8.3347   -1.1146 H   0  0  0  0  0  0  0  0  0  0  0  0
   -1.6287    8.1788   -1.9010 H   0  0  0  0  0  0  0  0  0  0  0  0
   -3.2503   10.7572   -1.6022 H   0  0  0  0  0  0  0  0  0  0  0  0
   -1.7496   10.3735   -0.7505 H   0  0  0  0  0  0  0  0  0  0  0  0
   -0.5154   10.3079   -2.8880 H   0  0  0  0  0  0  0  0  0  0  0  0
   -1.3622   11.8610   -2.7623 H   0  0  0  0  0  0  0  0  0  0  0  0
   -2.7100    9.0856  -10.9835 H   0  0  0  0  0  0  0  0  0  0  0  0
   -4.9626    9.1194   -9.9778 H   0  0  0  0  0  0  0  0  0  0  0  0
   -4.0374   12.6549   -7.7648 H   0  0  0  0  0  0  0  0  0  0  0  0
  1  2  1  0  0  0  0
  2  3  1  0  0  0  0
  3  4  1  0  0  0  0
  2  5  1  0  0  0  0
  5  6  4  0  0  0  0
  6  7  4  0  0  0  0
  7  8  4  0  0  0  0
  8  9  4  0  0  0  0
  5 10  4  0  0  0  0
  9 10  4  0  0  0  0
 10 11  1  0  0  0  0
 11 12  1  0  0  0  0
 12 13  1  0  0  0  0
 13 14  1  0  0  0  0
 11 15  2  0  0  0  0
 15 16  1  0  0  0  0
 16 17  1  0  0  0  0
 17 18  1  0  0  0  0
 17 19  1  0  0  0  0
 17 20  1  0  0  0  0
 20 21  1  0  0  0  0
 21 22  1  0  0  0  0
 22 23  1  0  0  0  0
 23 24  1  0  0  0  0
 24 25  1  0  0  0  0
 25 26  4  0  0  0  0
 26 27  1  0  0  0  0
 27 28  1  0  0  0  0
 28 29  4  0  0  0  0
 29 30  1  0  0  0  0
 30 31  1  0  0  0  0
 31 32  1  0  0  0  0
 31 33  1  0  0  0  0
 30 34  1  0  0  0  0
 34 35  4  0  0  0  0
 35 36  1  0  0  0  0
 36 37  1  0  0  0  0
 37 38  1  0  0  0  0
 38 39  1  0  0  0  0
 39 40  4  0  0  0  0
 40 41  1  0  0  0  0
 41 42  3  0  0  0  0
 42 43  1  0  0  0  0
 43 44  1  0  0  0  0
 44 45  1  0  0  0  0
 44 46  1  0  0  0  0
 43 47  1  0  0  0  0
 43 48  1  0  0  0  0
 40 49  2  0  0  0  0
 39 50  1  0  0  0  0
 36 51  1  0  0  0  0
 50 51  1  0  0  0  0
 35 52  2  0  0  0  0
 34 53  1  0  0  0  0
 29 54  2  0  0  0  0
 27 55  1  0  0  0  0
 55 56  1  0  0  0  0
 56 57  1  0  0  0  0
 57 58  1  0  0  0  0
 58 59  1  0  0  0  0
 59 60  1  0  0  0  0
 56 61  1  0  0  0  0
 60 61  1  0  0  0  0
 26 62  2  0  0  0  0
 25 63  1  0  0  0  0
 63 64  1  0  0  0  0
 23 65  1  0  0  0  0
 64 65  1  0  0  0  0
 22 66  2  0  0  0  0
 15 67  4  0  0  0  0
 12 68  1  0  0  0  0
 67 68  4  0  0  0  0
 68 69  4  0  0  0  0
 69 70  2  0  0  0  0
 58 71  1  0  0  0  0
 70 71  4  0  0  0  0
 67 72  4  0  0  0  0
 71 72  4  0  0  0  0
 36 73  1  0  0  0  0
  1 74  1  0  0  0  0
  1 75  1  0  0  0  0
  1 76  1  0  0  0  0
  2 77  1  0  0  0  0
  4 78  1  0  0  0  0
  4 79  1  0  0  0  0
  4 80  1  0  0  0  0
  7 81  1  0  0  0  0
  8 82  1  0  0  0  0
  9 83  1  0  0  0  0
 13 84  1  0  0  0  0
 13 85  1  0  0  0  0
 14 86  1  0  0  0  0
 14 87  1  0  0  0  0
 14 88  1  0  0  0  0
 16 89  1  0  0  0  0
 16 90  1  0  0  0  0
 18 91  1  0  0  0  0
 18 92  1  0  0  0  0
 18 93  1  0  0  0  0
 19 94  1  0  0  0  0
 19 95  1  0  0  0  0
 19 96  1  0  0  0  0
 20 97  1  0  0  0  0
 20 98  1  0  0  0  0
 23 99  1  0  0  0  0
 24100  1  0  0  0  0
 27101  1  0  0  0  0
 28102  1  0  0  0  0
 30103  1  0  0  0  0
 31104  1  0  0  0  0
 32105  1  0  0  0  0
 32106  1  0  0  0  0
 32107  1  0  0  0  0
 33108  1  0  0  0  0
 33109  1  0  0  0  0
 33110  1  0  0  0  0
 37111  1  0  0  0  0
 37112  1  0  0  0  0
 38113  1  0  0  0  0
 38114  1  0  0  0  0
 45115  1  0  0  0  0
 45116  1  0  0  0  0
 45117  1  0  0  0  0
 46118  1  0  0  0  0
 46119  1  0  0  0  0
 46120  1  0  0  0  0
 47121  1  0  0  0  0
 47122  1  0  0  0  0
 47123  1  0  0  0  0
 48124  1  0  0  0  0
 48125  1  0  0  0  0
 48126  1  0  0  0  0
 50127  1  0  0  0  0
 50128  1  0  0  0  0
 51129  1  0  0  0  0
 51130  1  0  0  0  0
 53131  1  0  0  0  0
 53132  1  0  0  0  0
 53133  1  0  0  0  0
 55134  1  0  0  0  0
 55135  1  0  0  0  0
 56136  1  0  0  0  0
 57137  1  0  0  0  0
 57138  1  0  0  0  0
 59139  1  0  0  0  0
 59140  1  0  0  0  0
 60141  1  0  0  0  0
 60142  1  0  0  0  0
 63143  1  0  0  0  0
 63144  1  0  0  0  0
 64145  1  0  0  0  0
 64146  1  0  0  0  0
 65147  1  0  0  0  0
 65148  1  0  0  0  0
 69149  1  0  0  0  0
 70150  1  0  0  0  0
 72151  1  0  0  0  0
M  END
$$$$
