 xtb: 6.7.1 (edcfbbe)
          08182500363D

151157  0     0  0            999 V2000
    2.1593    7.0229   -8.1489 C   0  0  0  0  0  0  0  0  0  0  0  0
    2.2466    5.5302   -7.8257 C   0  0  0  0  0  0  0  0  0  0  0  0
    3.3790    4.9072   -8.4137 O   0  0  0  0  0  0  0  0  0  0  0  0
    4.6062    5.2358   -7.8167 C   0  0  0  0  0  0  0  0  0  0  0  0
    1.0362    4.8030   -8.3764 C   0  0  0  0  0  0  0  0  0  0  0  0
    0.6464    5.1647   -9.5878 N   0  0  0  0  0  0  0  0  0  0  0  0
   -0.3994    4.5795  -10.1371 C   0  0  0  0  0  0  0  0  0  0  0  0
   -1.1410    3.5993   -9.4953 C   0  0  0  0  0  0  0  0  0  0  0  0
   -0.7457    3.2177   -8.2265 C   0  0  0  0  0  0  0  0  0  0  0  0
    0.3737    3.8104   -7.6421 C   0  0  0  0  0  0  0  0  0  0  0  0
    0.7891    3.4112   -6.2926 C   0  0  0  0  0  0  0  0  0  0  0  0
    0.0027    3.7196   -5.2031 N   0  0  0  0  0  0  0  0  0  0  0  0
   -1.1468    4.5843   -5.2078 C   0  0  0  0  0  0  0  0  0  0  0  0
   -0.7514    6.0453   -4.9943 C   0  0  0  0  0  0  0  0  0  0  0  0
    1.8970    2.6992   -5.8945 C   0  0  0  0  0  0  0  0  0  0  0  0
    2.9513    2.1417   -6.7953 C   0  0  0  0  0  0  0  0  0  0  0  0
    2.7276    0.6802   -7.2513 C   0  0  0  0  0  0  0  0  0  0  0  0
    1.2862    0.4585   -7.7066 C   0  0  0  0  0  0  0  0  0  0  0  0
    3.6785    0.3822   -8.4132 C   0  0  0  0  0  0  0  0  0  0  0  0
    3.0196   -0.2912   -6.1027 C   0  0  0  0  0  0  0  0  0  0  0  0
    4.4040   -0.2070   -5.7487 O   0  0  0  0  0  0  0  0  0  0  0  0
    4.7800   -0.8269   -4.6416 C   0  0  0  0  0  0  0  0  0  0  0  0
    6.2533   -0.5995   -4.3341 C   0  0  0  0  0  0  0  0  0  0  0  0
    6.8108   -1.7280   -3.6078 N   0  0  0  0  0  0  0  0  0  0  0  0
    8.0188   -1.3437   -3.0203 N   0  0  0  0  0  0  0  0  0  0  0  0
    8.1480   -0.7044   -1.8341 C   0  0  0  0  0  0  0  0  0  0  0  0
    6.8856   -0.6539   -0.9502 C   0  0  0  0  0  0  0  0  0  0  0  0
    6.9908   -1.6593    0.0825 N   0  0  0  0  0  0  0  0  0  0  0  0
    6.5134   -2.8978   -0.1059 C   0  0  0  0  0  0  0  0  0  0  0  0
    6.5595   -3.7419    1.1710 C   0  0  0  0  0  0  0  0  0  0  0  0
    6.5797   -5.2485    0.8910 C   0  0  0  0  0  0  0  0  0  0  0  0
    6.3997   -6.0406    2.1826 C   0  0  0  0  0  0  0  0  0  0  0  0
    7.9121   -5.5956    0.2285 C   0  0  0  0  0  0  0  0  0  0  0  0
    5.4309   -3.2939    1.9908 N   0  0  0  0  0  0  0  0  0  0  0  0
    5.7112   -2.3830    2.9390 C   0  0  0  0  0  0  0  0  0  0  0  0
    4.6302   -1.9058    3.9195 C   0  0  0  0  0  0  0  0  0  0  0  0
    4.6838   -2.8060    5.1606 C   0  0  0  0  0  0  0  0  0  0  0  0
    3.7308   -2.2795    6.2350 C   0  0  0  0  0  0  0  0  0  0  0  0
    4.0128   -0.8963    6.5327 N   0  0  0  0  0  0  0  0  0  0  0  0
    4.4193   -0.5364    7.7753 C   0  0  0  0  0  0  0  0  0  0  0  0
    4.6598    0.8747    7.9575 C   0  0  0  0  0  0  0  0  0  0  0  0
    4.8325    2.0232    8.2759 C   0  0  0  0  0  0  0  0  0  0  0  0
    5.1465    3.4034    8.6442 C   0  0  0  0  0  0  0  0  0  0  0  0
    6.4845    3.4985    9.2500 N   0  0  0  0  0  0  0  0  0  0  0  0
    7.5558    3.1059    8.3523 C   0  0  0  0  0  0  0  0  0  0  0  0
    6.6023    2.7839   10.5095 C   0  0  0  0  0  0  0  0  0  0  0  0
    5.0748    4.2915    7.3907 C   0  0  0  0  0  0  0  0  0  0  0  0
    4.0810    3.8898    9.6404 C   0  0  0  0  0  0  0  0  0  0  0  0
    4.5513   -1.3288    8.6910 O   0  0  0  0  0  0  0  0  0  0  0  0
    3.9224   -0.0094    5.4011 C   0  0  0  0  0  0  0  0  0  0  0  0
    4.8968   -0.4490    4.3069 C   0  0  0  0  0  0  0  0  0  0  0  0
    6.8526   -1.9825    3.1365 O   0  0  0  0  0  0  0  0  0  0  0  0
    4.1039   -3.5966    1.4952 C   0  0  0  0  0  0  0  0  0  0  0  0
    6.0317   -3.2819   -1.1565 O   0  0  0  0  0  0  0  0  0  0  0  0
    6.7086    0.7451   -0.3567 C   0  0  0  0  0  0  0  0  0  0  0  0
    5.2414    1.1137   -0.1198 C   0  0  0  0  0  0  0  0  0  0  0  0
    4.4514    1.2515   -1.4319 C   0  0  0  0  0  0  0  0  0  0  0  0
    3.0862    1.6173   -1.1201 N   0  0  0  0  0  0  0  0  0  0  0  0
    2.4907    0.5880   -0.2845 C   0  0  0  0  0  0  0  0  0  0  0  0
    3.3085    0.4731    0.9992 C   0  0  0  0  0  0  0  0  0  0  0  0
    4.6527    0.1447    0.7269 O   0  0  0  0  0  0  0  0  0  0  0  0
    9.2112   -0.2516   -1.4525 O   0  0  0  0  0  0  0  0  0  0  0  0
    9.0310   -1.2035   -4.0515 C   0  0  0  0  0  0  0  0  0  0  0  0
    8.5889   -0.1188   -5.0421 C   0  0  0  0  0  0  0  0  0  0  0  0
    7.1661   -0.3855   -5.5454 C   0  0  0  0  0  0  0  0  0  0  0  0
    4.0427   -1.4358   -3.9095 O   0  0  0  0  0  0  0  0  0  0  0  0
    1.8180    2.5963   -4.4720 C   0  0  0  0  0  0  0  0  0  0  0  0
    0.6277    3.2510   -4.0794 C   0  0  0  0  0  0  0  0  0  0  0  0
    0.2630    3.3368   -2.7408 C   0  0  0  0  0  0  0  0  0  0  0  0
    1.0928    2.7655   -1.8072 C   0  0  0  0  0  0  0  0  0  0  0  0
    2.2860    2.1102   -2.1689 C   0  0  0  0  0  0  0  0  0  0  0  0
    2.6503    2.0331   -3.5017 C   0  0  0  0  0  0  0  0  0  0  0  0
    3.3414   -1.9660    3.3981 F   0  0  0  0  0  0  0  0  0  0  0  0
    2.9919    7.5640   -7.7068 H   0  0  0  0  0  0  0  0  0  0  0  0
    2.1695    7.1514   -9.2269 H   0  0  0  0  0  0  0  0  0  0  0  0
    1.2315    7.4298   -7.7550 H   0  0  0  0  0  0  0  0  0  0  0  0
    2.2902    5.3856   -6.7320 H   0  0  0  0  0  0  0  0  0  0  0  0
    4.5754    5.0680   -6.7325 H   0  0  0  0  0  0  0  0  0  0  0  0
    5.3463    4.5744   -8.2642 H   0  0  0  0  0  0  0  0  0  0  0  0
    4.8942    6.2746   -8.0085 H   0  0  0  0  0  0  0  0  0  0  0  0
   -0.6567    4.9214  -11.1309 H   0  0  0  0  0  0  0  0  0  0  0  0
   -1.9987    3.1499   -9.9711 H   0  0  0  0  0  0  0  0  0  0  0  0
   -1.2881    2.4532   -7.6869 H   0  0  0  0  0  0  0  0  0  0  0  0
   -1.6651    4.4804   -6.1646 H   0  0  0  0  0  0  0  0  0  0  0  0
   -1.8232    4.2594   -4.4124 H   0  0  0  0  0  0  0  0  0  0  0  0
   -0.2178    6.1570   -4.0534 H   0  0  0  0  0  0  0  0  0  0  0  0
   -0.1038    6.3785   -5.8023 H   0  0  0  0  0  0  0  0  0  0  0  0
   -1.6370    6.6745   -4.9740 H   0  0  0  0  0  0  0  0  0  0  0  0
    3.0033    2.7636   -7.6901 H   0  0  0  0  0  0  0  0  0  0  0  0
    3.9190    2.1899   -6.2912 H   0  0  0  0  0  0  0  0  0  0  0  0
    0.5942    0.6142   -6.8825 H   0  0  0  0  0  0  0  0  0  0  0  0
    1.0401    1.1522   -8.5060 H   0  0  0  0  0  0  0  0  0  0  0  0
    1.1569   -0.5560   -8.0774 H   0  0  0  0  0  0  0  0  0  0  0  0
    4.7099    0.5368   -8.1085 H   0  0  0  0  0  0  0  0  0  0  0  0
    3.5677   -0.6491   -8.7412 H   0  0  0  0  0  0  0  0  0  0  0  0
    3.4613    1.0380   -9.2526 H   0  0  0  0  0  0  0  0  0  0  0  0
    2.4096   -0.0582   -5.2242 H   0  0  0  0  0  0  0  0  0  0  0  0
    2.8044   -1.3224   -6.4037 H   0  0  0  0  0  0  0  0  0  0  0  0
    6.2744    0.3261   -3.7189 H   0  0  0  0  0  0  0  0  0  0  0  0
    6.1838   -2.2045   -2.9613 H   0  0  0  0  0  0  0  0  0  0  0  0
    6.0033   -0.9224   -1.5351 H   0  0  0  0  0  0  0  0  0  0  0  0
    7.3631   -1.3918    0.9828 H   0  0  0  0  0  0  0  0  0  0  0  0
    7.4604   -3.4840    1.7374 H   0  0  0  0  0  0  0  0  0  0  0  0
    5.7831   -5.5027    0.1860 H   0  0  0  0  0  0  0  0  0  0  0  0
    5.4266   -5.8530    2.6287 H   0  0  0  0  0  0  0  0  0  0  0  0
    6.4839   -7.1058    1.9819 H   0  0  0  0  0  0  0  0  0  0  0  0
    7.1671   -5.7644    2.9027 H   0  0  0  0  0  0  0  0  0  0  0  0
    7.9470   -6.6560   -0.0083 H   0  0  0  0  0  0  0  0  0  0  0  0
    8.0335   -5.0342   -0.6942 H   0  0  0  0  0  0  0  0  0  0  0  0
    8.7430   -5.3623    0.8912 H   0  0  0  0  0  0  0  0  0  0  0  0
    4.4060   -3.8259    4.8894 H   0  0  0  0  0  0  0  0  0  0  0  0
    5.7088   -2.8086    5.5324 H   0  0  0  0  0  0  0  0  0  0  0  0
    2.6967   -2.3649    5.8795 H   0  0  0  0  0  0  0  0  0  0  0  0
    3.8437   -2.8493    7.1595 H   0  0  0  0  0  0  0  0  0  0  0  0
    8.5020    3.2304    8.8768 H   0  0  0  0  0  0  0  0  0  0  0  0
    7.4780    2.0602    8.0208 H   0  0  0  0  0  0  0  0  0  0  0  0
    7.5734    3.7544    7.4802 H   0  0  0  0  0  0  0  0  0  0  0  0
    5.9500    3.2303   11.2558 H   0  0  0  0  0  0  0  0  0  0  0  0
    6.3680    1.7140   10.4198 H   0  0  0  0  0  0  0  0  0  0  0  0
    7.6273    2.8836   10.8632 H   0  0  0  0  0  0  0  0  0  0  0  0
    5.4765    5.2738    7.6247 H   0  0  0  0  0  0  0  0  0  0  0  0
    5.6331    3.8635    6.5625 H   0  0  0  0  0  0  0  0  0  0  0  0
    4.0396    4.3986    7.0752 H   0  0  0  0  0  0  0  0  0  0  0  0
    3.9291    3.1720   10.4413 H   0  0  0  0  0  0  0  0  0  0  0  0
    4.3908    4.8427   10.0613 H   0  0  0  0  0  0  0  0  0  0  0  0
    3.1316    4.0207    9.1267 H   0  0  0  0  0  0  0  0  0  0  0  0
    2.8984   -0.0393    5.0070 H   0  0  0  0  0  0  0  0  0  0  0  0
    4.1469    1.0091    5.7225 H   0  0  0  0  0  0  0  0  0  0  0  0
    5.9265   -0.3756    4.6554 H   0  0  0  0  0  0  0  0  0  0  0  0
    4.7834    0.1778    3.4220 H   0  0  0  0  0  0  0  0  0  0  0  0
    3.4911   -4.0671    2.2641 H   0  0  0  0  0  0  0  0  0  0  0  0
    3.6045   -2.6928    1.1446 H   0  0  0  0  0  0  0  0  0  0  0  0
    4.1945   -4.2746    0.6524 H   0  0  0  0  0  0  0  0  0  0  0  0
    7.2495    0.7961    0.5893 H   0  0  0  0  0  0  0  0  0  0  0  0
    7.1484    1.4858   -1.0268 H   0  0  0  0  0  0  0  0  0  0  0  0
    5.2015    2.0941    0.3887 H   0  0  0  0  0  0  0  0  0  0  0  0
    4.9043    2.0442   -2.0314 H   0  0  0  0  0  0  0  0  0  0  0  0
    4.4824    0.3012   -1.9876 H   0  0  0  0  0  0  0  0  0  0  0  0
    1.4610    0.8494   -0.0446 H   0  0  0  0  0  0  0  0  0  0  0  0
    2.4978   -0.3853   -0.8042 H   0  0  0  0  0  0  0  0  0  0  0  0
    3.2650    1.4325    1.5394 H   0  0  0  0  0  0  0  0  0  0  0  0
    2.9170   -0.3213    1.6355 H   0  0  0  0  0  0  0  0  0  0  0  0
    9.9729   -0.9382   -3.5720 H   0  0  0  0  0  0  0  0  0  0  0  0
    9.1231   -2.1671   -4.5564 H   0  0  0  0  0  0  0  0  0  0  0  0
    8.6190    0.8492   -4.5357 H   0  0  0  0  0  0  0  0  0  0  0  0
    9.2840   -0.0847   -5.8811 H   0  0  0  0  0  0  0  0  0  0  0  0
    7.1505   -1.2914   -6.1518 H   0  0  0  0  0  0  0  0  0  0  0  0
    6.8131    0.4493   -6.1503 H   0  0  0  0  0  0  0  0  0  0  0  0
   -0.6378    3.8458   -2.4319 H   0  0  0  0  0  0  0  0  0  0  0  0
    0.8425    2.8403   -0.7601 H   0  0  0  0  0  0  0  0  0  0  0  0
    3.5653    1.5495   -3.8036 H   0  0  0  0  0  0  0  0  0  0  0  0
  1  2  1  0  0  0  0
  2  3  1  0  0  0  0
  3  4  1  0  0  0  0
  2  5  1  0  0  0  0
  5  6  4  0  0  0  0
  6  7  4  0  0  0  0
  7  8  4  0  0  0  0
  8  9  4  0  0  0  0
  5 10  4  0  0  0  0
  9 10  4  0  0  0  0
 10 11  1  0  0  0  0
 11 12  1  0  0  0  0
 12 13  1  0  0  0  0
 13 14  1  0  0  0  0
 11 15  2  0  0  0  0
 15 16  1  0  0  0  0
 16 17  1  0  0  0  0
 17 18  1  0  0  0  0
 17 19  1  0  0  0  0
 17 20  1  0  0  0  0
 20 21  1  0  0  0  0
 21 22  1  0  0  0  0
 22 23  1  0  0  0  0
 23 24  1  0  0  0  0
 24 25  1  0  0  0  0
 25 26  4  0  0  0  0
 26 27  1  0  0  0  0
 27 28  1  0  0  0  0
 28 29  4  0  0  0  0
 29 30  1  0  0  0  0
 30 31  1  0  0  0  0
 31 32  1  0  0  0  0
 31 33  1  0  0  0  0
 30 34  1  0  0  0  0
 34 35  4  0  0  0  0
 35 36  1  0  0  0  0
 36 37  1  0  0  0  0
 37 38  1  0  0  0  0
 38 39  1  0  0  0  0
 39 40  4  0  0  0  0
 40 41  1  0  0  0  0
 41 42  3  0  0  0  0
 42 43  1  0  0  0  0
 43 44  1  0  0  0  0
 44 45  1  0  0  0  0
 44 46  1  0  0  0  0
 43 47  1  0  0  0  0
 43 48  1  0  0  0  0
 40 49  2  0  0  0  0
 39 50  1  0  0  0  0
 36 51  1  0  0  0  0
 50 51  1  0  0  0  0
 35 52  2  0  0  0  0
 34 53  1  0  0  0  0
 29 54  2  0  0  0  0
 27 55  1  0  0  0  0
 55 56  1  0  0  0  0
 56 57  1  0  0  0  0
 57 58  1  0  0  0  0
 58 59  1  0  0  0  0
 59 60  1  0  0  0  0
 56 61  1  0  0  0  0
 60 61  1  0  0  0  0
 26 62  2  0  0  0  0
 25 63  1  0  0  0  0
 63 64  1  0  0  0  0
 23 65  1  0  0  0  0
 64 65  1  0  0  0  0
 22 66  2  0  0  0  0
 15 67  4  0  0  0  0
 12 68  1  0  0  0  0
 67 68  4  0  0  0  0
 68 69  4  0  0  0  0
 69 70  2  0  0  0  0
 58 71  1  0  0  0  0
 70 71  4  0  0  0  0
 67 72  4  0  0  0  0
 71 72  4  0  0  0  0
 36 73  1  0  0  0  0
  1 74  1  0  0  0  0
  1 75  1  0  0  0  0
  1 76  1  0  0  0  0
  2 77  1  0  0  0  0
  4 78  1  0  0  0  0
  4 79  1  0  0  0  0
  4 80  1  0  0  0  0
  7 81  1  0  0  0  0
  8 82  1  0  0  0  0
  9 83  1  0  0  0  0
 13 84  1  0  0  0  0
 13 85  1  0  0  0  0
 14 86  1  0  0  0  0
 14 87  1  0  0  0  0
 14 88  1  0  0  0  0
 16 89  1  0  0  0  0
 16 90  1  0  0  0  0
 18 91  1  0  0  0  0
 18 92  1  0  0  0  0
 18 93  1  0  0  0  0
 19 94  1  0  0  0  0
 19 95  1  0  0  0  0
 19 96  1  0  0  0  0
 20 97  1  0  0  0  0
 20 98  1  0  0  0  0
 23 99  1  0  0  0  0
 24100  1  0  0  0  0
 27101  1  0  0  0  0
 28102  1  0  0  0  0
 30103  1  0  0  0  0
 31104  1  0  0  0  0
 32105  1  0  0  0  0
 32106  1  0  0  0  0
 32107  1  0  0  0  0
 33108  1  0  0  0  0
 33109  1  0  0  0  0
 33110  1  0  0  0  0
 37111  1  0  0  0  0
 37112  1  0  0  0  0
 38113  1  0  0  0  0
 38114  1  0  0  0  0
 45115  1  0  0  0  0
 45116  1  0  0  0  0
 45117  1  0  0  0  0
 46118  1  0  0  0  0
 46119  1  0  0  0  0
 46120  1  0  0  0  0
 47121  1  0  0  0  0
 47122  1  0  0  0  0
 47123  1  0  0  0  0
 48124  1  0  0  0  0
 48125  1  0  0  0  0
 48126  1  0  0  0  0
 50127  1  0  0  0  0
 50128  1  0  0  0  0
 51129  1  0  0  0  0
 51130  1  0  0  0  0
 53131  1  0  0  0  0
 53132  1  0  0  0  0
 53133  1  0  0  0  0
 55134  1  0  0  0  0
 55135  1  0  0  0  0
 56136  1  0  0  0  0
 57137  1  0  0  0  0
 57138  1  0  0  0  0
 59139  1  0  0  0  0
 59140  1  0  0  0  0
 60141  1  0  0  0  0
 60142  1  0  0  0  0
 63143  1  0  0  0  0
 63144  1  0  0  0  0
 64145  1  0  0  0  0
 64146  1  0  0  0  0
 65147  1  0  0  0  0
 65148  1  0  0  0  0
 69149  1  0  0  0  0
 70150  1  0  0  0  0
 72151  1  0  0  0  0
M  END
$$$$
