 energy: -221.287754324373 gnorm: 0.000340539846 xtb: 6.7.1 (edcfbbe)
          08232516313D

151157  0     0  0            999 V2000
    4.9670    4.1084    1.9554 C   0  0  0  0  0  0  0  0  0  0  0  0
    3.7223    3.4655    1.3430 C   0  0  0  0  0  0  0  0  0  0  0  0
    4.0414    2.6059    0.2550 O   0  0  0  0  0  0  0  0  0  0  0  0
    4.5246    1.3441    0.6298 C   0  0  0  0  0  0  0  0  0  0  0  0
    2.7880    4.5284    0.7944 C   0  0  0  0  0  0  0  0  0  0  0  0
    3.3674    5.5639    0.2101 N   0  0  0  0  0  0  0  0  0  0  0  0
    2.6175    6.5028   -0.3353 C   0  0  0  0  0  0  0  0  0  0  0  0
    1.2322    6.4721   -0.3162 C   0  0  0  0  0  0  0  0  0  0  0  0
    0.6153    5.4025    0.3074 C   0  0  0  0  0  0  0  0  0  0  0  0
    1.3938    4.3971    0.8748 C   0  0  0  0  0  0  0  0  0  0  0  0
    0.7495    3.2415    1.5068 C   0  0  0  0  0  0  0  0  0  0  0  0
    0.8154    3.0294    2.8689 N   0  0  0  0  0  0  0  0  0  0  0  0
    1.2025    4.0171    3.8467 C   0  0  0  0  0  0  0  0  0  0  0  0
    2.3407    3.5667    4.7615 C   0  0  0  0  0  0  0  0  0  0  0  0
    0.0681    2.2173    0.8906 C   0  0  0  0  0  0  0  0  0  0  0  0
   -0.4208    2.1146   -0.5234 C   0  0  0  0  0  0  0  0  0  0  0  0
    0.5033    1.4928   -1.5951 C   0  0  0  0  0  0  0  0  0  0  0  0
    1.6611    2.4386   -1.9152 C   0  0  0  0  0  0  0  0  0  0  0  0
   -0.3252    1.2877   -2.8684 C   0  0  0  0  0  0  0  0  0  0  0  0
    1.0957    0.1495   -1.1163 C   0  0  0  0  0  0  0  0  0  0  0  0
    0.3419   -1.0125   -1.4976 O   0  0  0  0  0  0  0  0  0  0  0  0
    0.7675   -1.6732   -2.5712 C   0  0  0  0  0  0  0  0  0  0  0  0
   -0.0145   -2.9667   -2.7886 C   0  0  0  0  0  0  0  0  0  0  0  0
   -1.4455   -2.7478   -2.9611 N   0  0  0  0  0  0  0  0  0  0  0  0
   -2.1114   -3.9794   -2.9627 N   0  0  0  0  0  0  0  0  0  0  0  0
   -2.5676   -4.6465   -1.8792 C   0  0  0  0  0  0  0  0  0  0  0  0
   -2.5244   -3.8855   -0.5416 C   0  0  0  0  0  0  0  0  0  0  0  0
   -3.8638   -3.4468   -0.2074 N   0  0  0  0  0  0  0  0  0  0  0  0
   -4.3511   -2.2854   -0.6608 C   0  0  0  0  0  0  0  0  0  0  0  0
   -5.7740   -1.9587   -0.1936 C   0  0  0  0  0  0  0  0  0  0  0  0
   -6.8454   -2.4943   -1.1565 C   0  0  0  0  0  0  0  0  0  0  0  0
   -8.2349   -2.2270   -0.5773 C   0  0  0  0  0  0  0  0  0  0  0  0
   -6.6683   -3.9960   -1.3796 C   0  0  0  0  0  0  0  0  0  0  0  0
   -5.8373   -0.5128    0.0366 N   0  0  0  0  0  0  0  0  0  0  0  0
   -5.3900   -0.1204    1.2432 C   0  0  0  0  0  0  0  0  0  0  0  0
   -5.1713    1.3723    1.5457 C   0  0  0  0  0  0  0  0  0  0  0  0
   -3.9272    1.9003    0.8261 C   0  0  0  0  0  0  0  0  0  0  0  0
   -3.7226    3.3756    1.1674 C   0  0  0  0  0  0  0  0  0  0  0  0
   -3.5907    3.5319    2.5954 N   0  0  0  0  0  0  0  0  0  0  0  0
   -2.4931    4.1287    3.1084 C   0  0  0  0  0  0  0  0  0  0  0  0
   -2.3897    4.1238    4.5481 C   0  0  0  0  0  0  0  0  0  0  0  0
   -2.0835    4.1921    5.7103 C   0  0  0  0  0  0  0  0  0  0  0  0
   -1.7875    4.3162    7.1359 C   0  0  0  0  0  0  0  0  0  0  0  0
   -1.1990    3.0497    7.5869 N   0  0  0  0  0  0  0  0  0  0  0  0
   -2.0364    1.8917    7.3501 C   0  0  0  0  0  0  0  0  0  0  0  0
   -0.7070    3.0479    8.9474 C   0  0  0  0  0  0  0  0  0  0  0  0
   -0.7599    5.4540    7.2643 C   0  0  0  0  0  0  0  0  0  0  0  0
   -3.0916    4.7143    7.8588 C   0  0  0  0  0  0  0  0  0  0  0  0
   -1.6309    4.6487    2.4202 O   0  0  0  0  0  0  0  0  0  0  0  0
   -4.7077    3.0441    3.3635 C   0  0  0  0  0  0  0  0  0  0  0  0
   -4.9869    1.5738    3.0528 C   0  0  0  0  0  0  0  0  0  0  0  0
   -5.1261   -0.9297    2.1225 O   0  0  0  0  0  0  0  0  0  0  0  0
   -6.0490    0.3349   -1.1170 C   0  0  0  0  0  0  0  0  0  0  0  0
   -3.6973   -1.5316   -1.3667 O   0  0  0  0  0  0  0  0  0  0  0  0
   -1.9638   -4.7740    0.5663 C   0  0  0  0  0  0  0  0  0  0  0  0
   -1.9123   -4.0801    1.9360 C   0  0  0  0  0  0  0  0  0  0  0  0
   -1.6234   -2.5823    1.8176 C   0  0  0  0  0  0  0  0  0  0  0  0
   -1.5475   -1.9674    3.1267 N   0  0  0  0  0  0  0  0  0  0  0  0
   -2.7856   -2.2138    3.8586 C   0  0  0  0  0  0  0  0  0  0  0  0
   -3.0691   -3.7158    3.9017 C   0  0  0  0  0  0  0  0  0  0  0  0
   -3.1410   -4.2785    2.6099 O   0  0  0  0  0  0  0  0  0  0  0  0
   -3.0636   -5.7560   -1.9586 O   0  0  0  0  0  0  0  0  0  0  0  0
   -1.8289   -4.6942   -4.1939 C   0  0  0  0  0  0  0  0  0  0  0  0
   -0.3262   -4.9841   -4.2486 C   0  0  0  0  0  0  0  0  0  0  0  0
    0.4651   -3.6911   -4.0518 C   0  0  0  0  0  0  0  0  0  0  0  0
    1.7058   -1.3508   -3.2501 O   0  0  0  0  0  0  0  0  0  0  0  0
   -0.2850    1.3057    1.9307 C   0  0  0  0  0  0  0  0  0  0  0  0
    0.1516    1.8659    3.1516 C   0  0  0  0  0  0  0  0  0  0  0  0
   -0.1235    1.2233    4.3544 C   0  0  0  0  0  0  0  0  0  0  0  0
   -0.7294   -0.0129    4.3122 C   0  0  0  0  0  0  0  0  0  0  0  0
   -1.0914   -0.6302    3.1004 C   0  0  0  0  0  0  0  0  0  0  0  0
   -0.9100    0.0599    1.9127 C   0  0  0  0  0  0  0  0  0  0  0  0
   -6.2916    2.1099    1.1536 F   0  0  0  0  0  0  0  0  0  0  0  0
    4.6736    4.8160    2.7263 H   0  0  0  0  0  0  0  0  0  0  0  0
    5.6165    3.3551    2.3955 H   0  0  0  0  0  0  0  0  0  0  0  0
    5.5038    4.6414    1.1770 H   0  0  0  0  0  0  0  0  0  0  0  0
    3.1900    2.8692    2.0985 H   0  0  0  0  0  0  0  0  0  0  0  0
    5.5005    1.4047    1.1236 H   0  0  0  0  0  0  0  0  0  0  0  0
    3.8193    0.8322    1.2986 H   0  0  0  0  0  0  0  0  0  0  0  0
    4.6279    0.7732   -0.2912 H   0  0  0  0  0  0  0  0  0  0  0  0
    3.1582    7.3179   -0.7989 H   0  0  0  0  0  0  0  0  0  0  0  0
    0.6547    7.2659   -0.7646 H   0  0  0  0  0  0  0  0  0  0  0  0
   -0.4583    5.3454    0.3953 H   0  0  0  0  0  0  0  0  0  0  0  0
    1.4962    4.9200    3.3062 H   0  0  0  0  0  0  0  0  0  0  0  0
    0.3236    4.2561    4.4557 H   0  0  0  0  0  0  0  0  0  0  0  0
    2.0673    2.6701    5.3095 H   0  0  0  0  0  0  0  0  0  0  0  0
    3.2455    3.3618    4.1971 H   0  0  0  0  0  0  0  0  0  0  0  0
    2.5568    4.3566    5.4767 H   0  0  0  0  0  0  0  0  0  0  0  0
   -1.3358    1.5183   -0.4999 H   0  0  0  0  0  0  0  0  0  0  0  0
   -0.6852    3.1154   -0.8730 H   0  0  0  0  0  0  0  0  0  0  0  0
    2.3296    2.5473   -1.0677 H   0  0  0  0  0  0  0  0  0  0  0  0
    2.2354    2.0568   -2.7565 H   0  0  0  0  0  0  0  0  0  0  0  0
    1.2818    3.4229   -2.1805 H   0  0  0  0  0  0  0  0  0  0  0  0
   -1.1797    0.6386   -2.6849 H   0  0  0  0  0  0  0  0  0  0  0  0
   -0.6931    2.2470   -3.2252 H   0  0  0  0  0  0  0  0  0  0  0  0
    0.2849    0.8439   -3.6517 H   0  0  0  0  0  0  0  0  0  0  0  0
    2.1028    0.0338   -1.5264 H   0  0  0  0  0  0  0  0  0  0  0  0
    1.1411    0.1249   -0.0260 H   0  0  0  0  0  0  0  0  0  0  0  0
    0.1937   -3.5966   -1.9002 H   0  0  0  0  0  0  0  0  0  0  0  0
   -1.8775   -2.0833   -2.3237 H   0  0  0  0  0  0  0  0  0  0  0  0
   -1.8997   -2.9955   -0.6465 H   0  0  0  0  0  0  0  0  0  0  0  0
   -4.3769   -4.0186    0.4456 H   0  0  0  0  0  0  0  0  0  0  0  0
   -5.9278   -2.4254    0.7858 H   0  0  0  0  0  0  0  0  0  0  0  0
   -6.7417   -1.9974   -2.1250 H   0  0  0  0  0  0  0  0  0  0  0  0
   -8.3738   -1.1787   -0.3270 H   0  0  0  0  0  0  0  0  0  0  0  0
   -9.0020   -2.5157   -1.2919 H   0  0  0  0  0  0  0  0  0  0  0  0
   -8.3763   -2.8096    0.3306 H   0  0  0  0  0  0  0  0  0  0  0  0
   -6.7149   -4.5354   -0.4358 H   0  0  0  0  0  0  0  0  0  0  0  0
   -7.4696   -4.3635   -2.0164 H   0  0  0  0  0  0  0  0  0  0  0  0
   -5.7233   -4.2240   -1.8653 H   0  0  0  0  0  0  0  0  0  0  0  0
   -3.0720    1.3214    1.1804 H   0  0  0  0  0  0  0  0  0  0  0  0
   -4.0068    1.7811   -0.2530 H   0  0  0  0  0  0  0  0  0  0  0  0
   -2.8076    3.7504    0.7060 H   0  0  0  0  0  0  0  0  0  0  0  0
   -4.5776    3.9620    0.8088 H   0  0  0  0  0  0  0  0  0  0  0  0
   -2.8920    1.8250    8.0396 H   0  0  0  0  0  0  0  0  0  0  0  0
   -2.4039    1.9069    6.3260 H   0  0  0  0  0  0  0  0  0  0  0  0
   -1.4272    0.9976    7.4840 H   0  0  0  0  0  0  0  0  0  0  0  0
   -1.5062    3.1073    9.7022 H   0  0  0  0  0  0  0  0  0  0  0  0
   -0.1663    2.1146    9.1061 H   0  0  0  0  0  0  0  0  0  0  0  0
   -0.0121    3.8685    9.1020 H   0  0  0  0  0  0  0  0  0  0  0  0
   -0.6969    5.8113    8.2888 H   0  0  0  0  0  0  0  0  0  0  0  0
    0.2178    5.1061    6.9409 H   0  0  0  0  0  0  0  0  0  0  0  0
   -1.0592    6.2861    6.6309 H   0  0  0  0  0  0  0  0  0  0  0  0
   -2.9087    4.8381    8.9236 H   0  0  0  0  0  0  0  0  0  0  0  0
   -3.4572    5.6562    7.4575 H   0  0  0  0  0  0  0  0  0  0  0  0
   -3.8602    3.9584    7.7154 H   0  0  0  0  0  0  0  0  0  0  0  0
   -4.4937    3.1704    4.4264 H   0  0  0  0  0  0  0  0  0  0  0  0
   -5.5965    3.6377    3.1095 H   0  0  0  0  0  0  0  0  0  0  0  0
   -5.8872    1.2484    3.5750 H   0  0  0  0  0  0  0  0  0  0  0  0
   -4.1544    0.9510    3.3802 H   0  0  0  0  0  0  0  0  0  0  0  0
   -6.0804    1.3798   -0.8363 H   0  0  0  0  0  0  0  0  0  0  0  0
   -5.2489    0.1703   -1.8420 H   0  0  0  0  0  0  0  0  0  0  0  0
   -7.0045    0.0931   -1.5809 H   0  0  0  0  0  0  0  0  0  0  0  0
   -2.5805   -5.6705    0.6505 H   0  0  0  0  0  0  0  0  0  0  0  0
   -0.9559   -5.0821    0.2840 H   0  0  0  0  0  0  0  0  0  0  0  0
   -1.1115   -4.5424    2.5396 H   0  0  0  0  0  0  0  0  0  0  0  0
   -0.6653   -2.4424    1.3116 H   0  0  0  0  0  0  0  0  0  0  0  0
   -2.4331   -2.1166    1.2379 H   0  0  0  0  0  0  0  0  0  0  0  0
   -2.6897   -1.8352    4.8763 H   0  0  0  0  0  0  0  0  0  0  0  0
   -3.6329   -1.7165    3.3667 H   0  0  0  0  0  0  0  0  0  0  0  0
   -2.2803   -4.2262    4.4763 H   0  0  0  0  0  0  0  0  0  0  0  0
   -4.0374   -3.9012    4.3688 H   0  0  0  0  0  0  0  0  0  0  0  0
   -2.4130   -5.6142   -4.1948 H   0  0  0  0  0  0  0  0  0  0  0  0
   -2.1276   -4.0554   -5.0272 H   0  0  0  0  0  0  0  0  0  0  0  0
   -0.0768   -5.6942   -3.4563 H   0  0  0  0  0  0  0  0  0  0  0  0
   -0.0716   -5.4384   -5.2058 H   0  0  0  0  0  0  0  0  0  0  0  0
    0.3055   -3.0242   -4.8994 H   0  0  0  0  0  0  0  0  0  0  0  0
    1.5326   -3.8968   -3.9776 H   0  0  0  0  0  0  0  0  0  0  0  0
    0.1276    1.6689    5.3037 H   0  0  0  0  0  0  0  0  0  0  0  0
   -0.9078   -0.5429    5.2353 H   0  0  0  0  0  0  0  0  0  0  0  0
   -1.2115   -0.3469    0.9612 H   0  0  0  0  0  0  0  0  0  0  0  0
  1  2  1  0  0  0  0
  2  3  1  0  0  0  0
  2  5  1  0  0  0  0
  3  4  1  0  0  0  0
  5  6  2  0  0  0  0
  5 10  1  0  0  0  0
  6  7  1  0  0  0  0
  7  8  2  0  0  0  0
  8  9  1  0  0  0  0
  9 10  2  0  0  0  0
 10 11  1  0  0  0  0
 11 12  1  0  0  0  0
 11 15  2  0  0  0  0
 12 13  1  0  0  0  0
 12 68  1  0  0  0  0
 13 14  1  0  0  0  0
 15 16  1  0  0  0  0
 15 67  1  0  0  0  0
 16 17  1  0  0  0  0
 17 18  1  0  0  0  0
 17 19  1  0  0  0  0
 17 20  1  0  0  0  0
 20 21  1  0  0  0  0
 21 22  1  0  0  0  0
 22 23  1  0  0  0  0
 22 66  2  0  0  0  0
 23 24  1  0  0  0  0
 23 65  1  0  0  0  0
 24 25  1  0  0  0  0
 25 26  1  0  0  0  0
 25 63  1  0  0  0  0
 26 27  1  0  0  0  0
 26 62  2  0  0  0  0
 27 28  1  0  0  0  0
 27 55  1  0  0  0  0
 28 29  1  0  0  0  0
 29 30  1  0  0  0  0
 29 54  2  0  0  0  0
 30 31  1  0  0  0  0
 30 34  1  0  0  0  0
 31 32  1  0  0  0  0
 31 33  1  0  0  0  0
 34 35  1  0  0  0  0
 34 53  1  0  0  0  0
 35 36  1  0  0  0  0
 35 52  2  0  0  0  0
 36 37  1  0  0  0  0
 36 51  1  0  0  0  0
 36 73  1  0  0  0  0
 37 38  1  0  0  0  0
 38 39  1  0  0  0  0
 39 40  1  0  0  0  0
 39 50  1  0  0  0  0
 40 41  1  0  0  0  0
 40 49  2  0  0  0  0
 42 43  1  0  0  0  0
 43 44  1  0  0  0  0
 43 47  1  0  0  0  0
 43 48  1  0  0  0  0
 44 45  1  0  0  0  0
 44 46  1  0  0  0  0
 50 51  1  0  0  0  0
 55 56  1  0  0  0  0
 56 57  1  0  0  0  0
 56 61  1  0  0  0  0
 57 58  1  0  0  0  0
 58 59  1  0  0  0  0
 58 71  1  0  0  0  0
 59 60  1  0  0  0  0
 60 61  1  0  0  0  0
 63 64  1  0  0  0  0
 64 65  1  0  0  0  0
 67 68  2  0  0  0  0
 67 72  1  0  0  0  0
 68 69  1  0  0  0  0
 69 70  2  0  0  0  0
 70 71  1  0  0  0  0
 71 72  2  0  0  0  0
 41 42  3  0  0  0  0
  1 74  1  0  0  0  0
  1 75  1  0  0  0  0
  1 76  1  0  0  0  0
  2 77  1  0  0  0  0
  4 78  1  0  0  0  0
  4 79  1  0  0  0  0
  4 80  1  0  0  0  0
  7 81  1  0  0  0  0
  8 82  1  0  0  0  0
  9 83  1  0  0  0  0
 13 84  1  0  0  0  0
 13 85  1  0  0  0  0
 14 86  1  0  0  0  0
 14 87  1  0  0  0  0
 14 88  1  0  0  0  0
 16 89  1  0  0  0  0
 16 90  1  0  0  0  0
 18 91  1  0  0  0  0
 18 92  1  0  0  0  0
 18 93  1  0  0  0  0
 19 94  1  0  0  0  0
 19 95  1  0  0  0  0
 19 96  1  0  0  0  0
 20 97  1  0  0  0  0
 20 98  1  0  0  0  0
 23 99  1  0  0  0  0
 24100  1  0  0  0  0
 27101  1  0  0  0  0
 28102  1  0  0  0  0
 30103  1  0  0  0  0
 31104  1  0  0  0  0
 32105  1  0  0  0  0
 32106  1  0  0  0  0
 32107  1  0  0  0  0
 33108  1  0  0  0  0
 33109  1  0  0  0  0
 33110  1  0  0  0  0
 37111  1  0  0  0  0
 37112  1  0  0  0  0
 38113  1  0  0  0  0
 38114  1  0  0  0  0
 45115  1  0  0  0  0
 45116  1  0  0  0  0
 45117  1  0  0  0  0
 46118  1  0  0  0  0
 46119  1  0  0  0  0
 46120  1  0  0  0  0
 47121  1  0  0  0  0
 47122  1  0  0  0  0
 47123  1  0  0  0  0
 48124  1  0  0  0  0
 48125  1  0  0  0  0
 48126  1  0  0  0  0
 50127  1  0  0  0  0
 50128  1  0  0  0  0
 51129  1  0  0  0  0
 51130  1  0  0  0  0
 53131  1  0  0  0  0
 53132  1  0  0  0  0
 53133  1  0  0  0  0
 55134  1  0  0  0  0
 55135  1  0  0  0  0
 56136  1  0  0  0  0
 57137  1  0  0  0  0
 57138  1  0  0  0  0
 59139  1  0  0  0  0
 59140  1  0  0  0  0
 60141  1  0  0  0  0
 60142  1  0  0  0  0
 63143  1  0  0  0  0
 63144  1  0  0  0  0
 64145  1  0  0  0  0
 64146  1  0  0  0  0
 65147  1  0  0  0  0
 65148  1  0  0  0  0
 69149  1  0  0  0  0
 70150  1  0  0  0  0
 72151  1  0  0  0  0
M  END
$$$$
