mol_bioactive_3
     RDKit          3D

151157  0  0  0  0  0  0  0  0999 V2000
   -4.2848   -3.5564    2.6668 C   0  0  0  0  0  0  0  0  0  0  0  0
   -2.9989   -4.2584    3.0912 C   0  0  2  0  0  0  0  0  0  0  0  0
   -1.9641   -3.3070    3.3633 O   0  0  0  0  0  0  0  0  0  0  0  0
   -1.9460   -2.8701    4.7137 C   0  0  0  0  0  0  0  0  0  0  0  0
   -2.5710   -5.3099    2.0732 C   0  0  0  0  0  0  0  0  0  0  0  0
   -2.8631   -6.5926    2.4584 N   0  0  0  0  0  0  0  0  0  0  0  0
   -2.5689   -7.6030    1.6154 C   0  0  0  0  0  0  0  0  0  0  0  0
   -2.0013   -7.4169    0.3742 C   0  0  0  0  0  0  0  0  0  0  0  0
   -1.7145   -6.1162   -0.0216 C   0  0  0  0  0  0  0  0  0  0  0  0
   -1.9889   -5.0303    0.8246 C   0  0  0  0  0  0  0  0  0  0  0  0
   -1.6630   -3.6843    0.3328 C   0  0  0  0  0  0  0  0  0  0  0  0
   -2.4718   -2.9729   -0.5445 N   0  0  0  0  0  0  0  0  0  0  0  0
   -3.7262   -3.4418   -1.1207 C   0  0  0  0  0  0  0  0  0  0  0  0
   -3.5508   -3.9894   -2.5276 C   0  0  0  0  0  0  0  0  0  0  0  0
   -0.5370   -2.8994    0.5867 C   0  0  0  0  0  0  0  0  0  0  0  0
    0.6544   -3.2311    1.4619 C   0  0  0  0  0  0  0  0  0  0  0  0
    1.9257   -3.8025    0.7625 C   0  0  0  0  0  0  0  0  0  0  0  0
    2.9293   -4.1932    1.8717 C   0  0  0  0  0  0  0  0  0  0  0  0
    1.5878   -5.0817   -0.0262 C   0  0  0  0  0  0  0  0  0  0  0  0
    2.5981   -2.8028   -0.2137 C   0  0  0  0  0  0  0  0  0  0  0  0
    3.3053   -1.7358    0.4597 O   0  0  0  0  0  0  0  0  0  0  0  0
    4.6657   -1.7160    0.2746 C   0  0  0  0  0  0  0  0  0  0  0  0
    5.3054   -0.4495    0.8636 C   0  0  1  0  0  0  0  0  0  0  0  0
    4.7656   -0.1400    2.1988 N   0  0  0  0  0  0  0  0  0  0  0  0
    5.3543    1.0417    2.7268 N   0  0  0  0  0  0  0  0  0  0  0  0
    4.7255    2.2873    2.8612 C   0  0  0  0  0  0  0  0  0  0  0  0
    3.3383    2.4656    2.2175 C   0  0  1  0  0  0  0  0  0  0  0  0
    2.4510    3.2098    3.0980 N   0  0  0  0  0  0  0  0  0  0  0  0
    1.6330    2.5617    3.9981 C   0  0  0  0  0  0  0  0  0  0  0  0
    0.7280    3.4895    4.8521 C   0  0  2  0  0  0  0  0  0  0  0  0
    1.3475    3.7737    6.2449 C   0  0  0  0  0  0  0  0  0  0  0  0
    0.4883    4.7759    7.0279 C   0  0  0  0  0  0  0  0  0  0  0  0
    2.7730    4.3337    6.1430 C   0  0  0  0  0  0  0  0  0  0  0  0
   -0.6407    2.8928    4.8714 N   0  0  0  0  0  0  0  0  0  0  0  0
   -1.4593    3.2025    3.7808 C   0  0  0  0  0  0  0  0  0  0  0  0
   -2.7637    2.4060    3.5188 C   0  0  0  0  0  0  0  0  0  0  0  0
   -3.6153    3.1646    2.4875 C   0  0  0  0  0  0  0  0  0  0  0  0
   -4.8449    2.3738    2.0809 C   0  0  0  0  0  0  0  0  0  0  0  0
   -4.4886    1.0308    1.6426 N   0  0  0  0  0  0  0  0  0  0  0  0
   -5.2096    0.3530    0.6655 C   0  0  0  0  0  0  0  0  0  0  0  0
   -5.8833    1.1328   -0.3499 C   0  0  0  0  0  0  0  0  0  0  0  0
   -6.4015    1.7519   -1.2410 C   0  0  0  0  0  0  0  0  0  0  0  0
   -7.0232    2.4788   -2.3735 C   0  0  0  0  0  0  0  0  0  0  0  0
   -8.2825    1.8313   -2.8368 N   0  0  0  0  0  0  0  0  0  0  0  0
   -9.3472    1.7998   -1.8301 C   0  0  0  0  0  0  0  0  0  0  0  0
   -8.0945    0.4812   -3.3802 C   0  0  0  0  0  0  0  0  0  0  0  0
   -7.2866    3.9380   -1.9327 C   0  0  0  0  0  0  0  0  0  0  0  0
   -5.9965    2.5511   -3.5294 C   0  0  0  0  0  0  0  0  0  0  0  0
   -5.2812   -0.8675    0.5802 O   0  0  0  0  0  0  0  0  0  0  0  0
   -3.6945    0.2506    2.5794 C   0  0  0  0  0  0  0  0  0  0  0  0
   -2.4383    0.9982    3.0081 C   0  0  0  0  0  0  0  0  0  0  0  0
   -1.1199    4.0909    2.9872 O   0  0  0  0  0  0  0  0  0  0  0  0
   -0.9058    1.7989    5.8061 C   0  0  0  0  0  0  0  0  0  0  0  0
    1.6322    1.3349    4.1012 O   0  0  0  0  0  0  0  0  0  0  0  0
    3.5065    3.1604    0.8498 C   0  0  0  0  0  0  0  0  0  0  0  0
    2.2296    3.2302   -0.0097 C   0  0  1  0  0  0  0  0  0  0  0  0
    1.4800    1.8908   -0.0167 C   0  0  0  0  0  0  0  0  0  0  0  0
    0.2249    1.9403   -0.7934 N   0  0  0  0  0  0  0  0  0  0  0  0
   -0.6151    3.0878   -0.3583 C   0  0  0  0  0  0  0  0  0  0  0  0
    0.2055    4.3915   -0.3284 C   0  0  0  0  0  0  0  0  0  0  0  0
    1.3869    4.2830    0.4870 O   0  0  0  0  0  0  0  0  0  0  0  0
    5.2821    3.2519    3.3986 O   0  0  0  0  0  0  0  0  0  0  0  0
    6.7840    0.9009    3.0066 C   0  0  0  0  0  0  0  0  0  0  0  0
    7.5018    0.5601    1.6988 C   0  0  0  0  0  0  0  0  0  0  0  0
    6.8330   -0.6299    0.9941 C   0  0  0  0  0  0  0  0  0  0  0  0
    5.2929   -2.5528   -0.3680 O   0  0  0  0  0  0  0  0  0  0  0  0
   -0.7655   -1.6385   -0.0530 C   0  0  0  0  0  0  0  0  0  0  0  0
   -1.9543   -1.7109   -0.7642 C   0  0  0  0  0  0  0  0  0  0  0  0
   -2.4237   -0.6236   -1.5208 C   0  0  0  0  0  0  0  0  0  0  0  0
   -1.6744    0.5660   -1.5212 C   0  0  0  0  0  0  0  0  0  0  0  0
   -0.4939    0.7078   -0.7855 C   0  0  0  0  0  0  0  0  0  0  0  0
   -0.0486   -0.4240   -0.0753 C   0  0  0  0  0  0  0  0  0  0  0  0
   -3.5312    2.2961    4.6499 F   0  0  0  0  0  0  0  0  0  0  0  0
   -4.6390   -2.8842    3.4545 H   0  0  0  0  0  0  0  0  0  0  0  0
   -4.1270   -2.9372    1.7825 H   0  0  0  0  0  0  0  0  0  0  0  0
   -5.0807   -4.2753    2.4450 H   0  0  0  0  0  0  0  0  0  0  0  0
   -3.2182   -4.8038    4.0209 H   0  0  0  0  0  0  0  0  0  0  0  0
   -1.7675   -3.7134    5.3874 H   0  0  0  0  0  0  0  0  0  0  0  0
   -1.1256   -2.1576    4.8299 H   0  0  0  0  0  0  0  0  0  0  0  0
   -2.8814   -2.3680    4.9739 H   0  0  0  0  0  0  0  0  0  0  0  0
   -2.8147   -8.5965    1.9784 H   0  0  0  0  0  0  0  0  0  0  0  0
   -1.7831   -8.2599   -0.2705 H   0  0  0  0  0  0  0  0  0  0  0  0
   -1.2639   -5.9472   -0.9966 H   0  0  0  0  0  0  0  0  0  0  0  0
   -4.1577   -4.2036   -0.4640 H   0  0  0  0  0  0  0  0  0  0  0  0
   -4.4270   -2.6015   -1.1297 H   0  0  0  0  0  0  0  0  0  0  0  0
   -2.8895   -4.8613   -2.5369 H   0  0  0  0  0  0  0  0  0  0  0  0
   -4.5194   -4.2946   -2.9363 H   0  0  0  0  0  0  0  0  0  0  0  0
   -3.1202   -3.2376   -3.1966 H   0  0  0  0  0  0  0  0  0  0  0  0
    0.9303   -2.3310    2.0278 H   0  0  0  0  0  0  0  0  0  0  0  0
    0.3267   -3.9544    2.2195 H   0  0  0  0  0  0  0  0  0  0  0  0
    2.5138   -4.9704    2.5230 H   0  0  0  0  0  0  0  0  0  0  0  0
    3.8591   -4.5837    1.4423 H   0  0  0  0  0  0  0  0  0  0  0  0
    3.1837   -3.3357    2.5041 H   0  0  0  0  0  0  0  0  0  0  0  0
    1.1019   -5.8238    0.6164 H   0  0  0  0  0  0  0  0  0  0  0  0
    0.9337   -4.8672   -0.8777 H   0  0  0  0  0  0  0  0  0  0  0  0
    2.4956   -5.5488   -0.4276 H   0  0  0  0  0  0  0  0  0  0  0  0
    3.2652   -3.3497   -0.8912 H   0  0  0  0  0  0  0  0  0  0  0  0
    1.8588   -2.3378   -0.8706 H   0  0  0  0  0  0  0  0  0  0  0  0
    5.0860    0.3674    0.1655 H   0  0  0  0  0  0  0  0  0  0  0  0
    3.7463   -0.1677    2.2400 H   0  0  0  0  0  0  0  0  0  0  0  0
    2.8991    1.4838    2.0773 H   0  0  0  0  0  0  0  0  0  0  0  0
    2.4937    4.2228    3.0810 H   0  0  0  0  0  0  0  0  0  0  0  0
    0.6687    4.4519    4.3271 H   0  0  0  0  0  0  0  0  0  0  0  0
    1.4137    2.8429    6.8208 H   0  0  0  0  0  0  0  0  0  0  0  0
    0.9143    4.9575    8.0203 H   0  0  0  0  0  0  0  0  0  0  0  0
    0.4311    5.7382    6.5055 H   0  0  0  0  0  0  0  0  0  0  0  0
   -0.5336    4.4123    7.1726 H   0  0  0  0  0  0  0  0  0  0  0  0
    3.1561    4.6039    7.1336 H   0  0  0  0  0  0  0  0  0  0  0  0
    3.4620    3.5928    5.7261 H   0  0  0  0  0  0  0  0  0  0  0  0
    2.8054    5.2297    5.5133 H   0  0  0  0  0  0  0  0  0  0  0  0
   -3.9331    4.1278    2.9040 H   0  0  0  0  0  0  0  0  0  0  0  0
   -3.0312    3.3797    1.5848 H   0  0  0  0  0  0  0  0  0  0  0  0
   -5.5351    2.2684    2.9273 H   0  0  0  0  0  0  0  0  0  0  0  0
   -5.3833    2.9188    1.3010 H   0  0  0  0  0  0  0  0  0  0  0  0
   -9.0822    1.2029   -0.9510 H   0  0  0  0  0  0  0  0  0  0  0  0
   -9.6276    2.8039   -1.5015 H   0  0  0  0  0  0  0  0  0  0  0  0
  -10.2623    1.3736   -2.2583 H   0  0  0  0  0  0  0  0  0  0  0  0
   -7.6689   -0.2125   -2.6492 H   0  0  0  0  0  0  0  0  0  0  0  0
   -9.0512    0.0655   -3.7157 H   0  0  0  0  0  0  0  0  0  0  0  0
   -7.4571    0.4901   -4.2693 H   0  0  0  0  0  0  0  0  0  0  0  0
   -7.8913    3.9998   -1.0207 H   0  0  0  0  0  0  0  0  0  0  0  0
   -6.3471    4.4574   -1.7049 H   0  0  0  0  0  0  0  0  0  0  0  0
   -7.7923    4.5069   -2.7218 H   0  0  0  0  0  0  0  0  0  0  0  0
   -5.1322    3.1666   -3.2550 H   0  0  0  0  0  0  0  0  0  0  0  0
   -5.5953    1.5659   -3.7948 H   0  0  0  0  0  0  0  0  0  0  0  0
   -6.4420    2.9925   -4.4281 H   0  0  0  0  0  0  0  0  0  0  0  0
   -4.3288    0.0226    3.4456 H   0  0  0  0  0  0  0  0  0  0  0  0
   -3.4035   -0.7013    2.1246 H   0  0  0  0  0  0  0  0  0  0  0  0
   -1.7484    1.0665    2.1582 H   0  0  0  0  0  0  0  0  0  0  0  0
   -1.9352    0.4008    3.7742 H   0  0  0  0  0  0  0  0  0  0  0  0
   -0.6520    2.1031    6.8237 H   0  0  0  0  0  0  0  0  0  0  0  0
   -1.9535    1.5075    5.8211 H   0  0  0  0  0  0  0  0  0  0  0  0
   -0.3113    0.9252    5.5307 H   0  0  0  0  0  0  0  0  0  0  0  0
    3.8889    4.1778    1.0064 H   0  0  0  0  0  0  0  0  0  0  0  0
    4.2717    2.6222    0.2777 H   0  0  0  0  0  0  0  0  0  0  0  0
    2.5242    3.4989   -1.0332 H   0  0  0  0  0  0  0  0  0  0  0  0
    2.1525    1.1253   -0.4215 H   0  0  0  0  0  0  0  0  0  0  0  0
    1.1996    1.6474    1.0135 H   0  0  0  0  0  0  0  0  0  0  0  0
   -1.4676    3.2386   -1.0273 H   0  0  0  0  0  0  0  0  0  0  0  0
   -0.9929    2.8846    0.6481 H   0  0  0  0  0  0  0  0  0  0  0  0
    0.5021    4.6873   -1.3415 H   0  0  0  0  0  0  0  0  0  0  0  0
   -0.4056    5.2000    0.0869 H   0  0  0  0  0  0  0  0  0  0  0  0
    7.1982    1.8193    3.4339 H   0  0  0  0  0  0  0  0  0  0  0  0
    6.9088    0.0982    3.7429 H   0  0  0  0  0  0  0  0  0  0  0  0
    7.4666    1.4297    1.0299 H   0  0  0  0  0  0  0  0  0  0  0  0
    8.5568    0.3402    1.8933 H   0  0  0  0  0  0  0  0  0  0  0  0
    7.0540   -1.5471    1.5582 H   0  0  0  0  0  0  0  0  0  0  0  0
    7.2834   -0.7599    0.0022 H   0  0  0  0  0  0  0  0  0  0  0  0
   -3.3466   -0.6851   -2.0877 H   0  0  0  0  0  0  0  0  0  0  0  0
   -2.0383    1.3905   -2.1285 H   0  0  0  0  0  0  0  0  0  0  0  0
    0.8568   -0.4090    0.5164 H   0  0  0  0  0  0  0  0  0  0  0  0
  1  2  1  0
  2  3  1  0
  2  5  1  0
  3  4  1  0
  5  6  2  0
  5 10  1  0
  6  7  1  0
  7  8  2  0
  8  9  1  0
  9 10  2  0
 10 11  1  0
 11 12  1  0
 11 15  2  0
 12 13  1  0
 12 68  1  0
 13 14  1  0
 15 16  1  0
 15 67  1  0
 16 17  1  0
 17 18  1  0
 17 19  1  0
 17 20  1  0
 20 21  1  0
 21 22  1  0
 22 23  1  0
 22 66  2  0
 23 24  1  0
 23 65  1  0
 24 25  1  0
 25 26  1  0
 25 63  1  0
 26 27  1  0
 26 62  2  0
 27 28  1  0
 27 55  1  0
 28 29  1  0
 29 30  1  0
 29 54  2  0
 30 31  1  0
 30 34  1  0
 31 32  1  0
 31 33  1  0
 34 35  1  0
 34 53  1  0
 35 36  1  0
 35 52  2  0
 36 37  1  0
 36 51  1  0
 36 73  1  0
 37 38  1  0
 38 39  1  0
 39 40  1  0
 39 50  1  0
 40 41  1  0
 40 49  2  0
 42 43  1  0
 43 44  1  0
 43 47  1  0
 43 48  1  0
 44 45  1  0
 44 46  1  0
 50 51  1  0
 55 56  1  0
 56 57  1  0
 56 61  1  0
 57 58  1  0
 58 59  1  0
 58 71  1  0
 59 60  1  0
 60 61  1  0
 63 64  1  0
 64 65  1  0
 67 68  2  0
 67 72  1  0
 68 69  1  0
 69 70  2  0
 70 71  1  0
 71 72  2  0
 41 42  3  0
  1 74  1  0
  1 75  1  0
  1 76  1  0
  2 77  1  1
  4 78  1  0
  4 79  1  0
  4 80  1  0
  7 81  1  0
  8 82  1  0
  9 83  1  0
 13 84  1  0
 13 85  1  0
 14 86  1  0
 14 87  1  0
 14 88  1  0
 16 89  1  0
 16 90  1  0
 18 91  1  0
 18 92  1  0
 18 93  1  0
 19 94  1  0
 19 95  1  0
 19 96  1  0
 20 97  1  0
 20 98  1  0
 23 99  1  6
 24100  1  0
 27101  1  6
 28102  1  0
 30103  1  6
 31104  1  0
 32105  1  0
 32106  1  0
 32107  1  0
 33108  1  0
 33109  1  0
 33110  1  0
 37111  1  0
 37112  1  0
 38113  1  0
 38114  1  0
 45115  1  0
 45116  1  0
 45117  1  0
 46118  1  0
 46119  1  0
 46120  1  0
 47121  1  0
 47122  1  0
 47123  1  0
 48124  1  0
 48125  1  0
 48126  1  0
 50127  1  0
 50128  1  0
 51129  1  0
 51130  1  0
 53131  1  0
 53132  1  0
 53133  1  0
 55134  1  0
 55135  1  0
 56136  1  6
 57137  1  0
 57138  1  0
 59139  1  0
 59140  1  0
 60141  1  0
 60142  1  0
 63143  1  0
 63144  1  0
 64145  1  0
 64146  1  0
 65147  1  0
 65148  1  0
 69149  1  0
 70150  1  0
 72151  1  0
M  END
$$$$
