 energy: -221.290547749158 gnorm: 0.000342990602 xtb: 6.7.1 (edcfbbe)
          08232518543D

151157  0     0  0            999 V2000
   -4.6342   -3.8711    2.3159 C   0  0  0  0  0  0  0  0  0  0  0  0
   -3.3144   -4.4335    2.8588 C   0  0  0  0  0  0  0  0  0  0  0  0
   -2.4369   -3.4067    3.2917 O   0  0  0  0  0  0  0  0  0  0  0  0
   -2.5881   -3.0583    4.6414 C   0  0  0  0  0  0  0  0  0  0  0  0
   -2.6562   -5.3032    1.8101 C   0  0  0  0  0  0  0  0  0  0  0  0
   -2.8151   -6.6005    2.0430 N   0  0  0  0  0  0  0  0  0  0  0  0
   -2.3771   -7.4863    1.1695 C   0  0  0  0  0  0  0  0  0  0  0  0
   -1.7585   -7.1273   -0.0166 C   0  0  0  0  0  0  0  0  0  0  0  0
   -1.5763   -5.7793   -0.2599 C   0  0  0  0  0  0  0  0  0  0  0  0
   -2.0082   -4.8267    0.6647 C   0  0  0  0  0  0  0  0  0  0  0  0
   -1.7730   -3.4098    0.3482 C   0  0  0  0  0  0  0  0  0  0  0  0
   -2.5217   -2.8060   -0.6383 N   0  0  0  0  0  0  0  0  0  0  0  0
   -3.6420   -3.3768   -1.3388 C   0  0  0  0  0  0  0  0  0  0  0  0
   -3.2942   -3.7352   -2.7833 C   0  0  0  0  0  0  0  0  0  0  0  0
   -0.7959   -2.5502    0.7981 C   0  0  0  0  0  0  0  0  0  0  0  0
    0.2158   -2.7458    1.8837 C   0  0  0  0  0  0  0  0  0  0  0  0
    1.5768   -3.3503    1.4704 C   0  0  0  0  0  0  0  0  0  0  0  0
    2.4452   -3.4840    2.7240 C   0  0  0  0  0  0  0  0  0  0  0  0
    1.3750   -4.7339    0.8512 C   0  0  0  0  0  0  0  0  0  0  0  0
    2.2918   -2.4817    0.4136 C   0  0  0  0  0  0  0  0  0  0  0  0
    3.1029   -1.4217    0.9402 O   0  0  0  0  0  0  0  0  0  0  0  0
    4.4113   -1.6530    1.0131 C   0  0  0  0  0  0  0  0  0  0  0  0
    5.1897   -0.3949    1.3829 C   0  0  0  0  0  0  0  0  0  0  0  0
    4.7134    0.2472    2.6001 N   0  0  0  0  0  0  0  0  0  0  0  0
    5.3195    1.5032    2.7283 N   0  0  0  0  0  0  0  0  0  0  0  0
    4.8832    2.6586    2.1765 C   0  0  0  0  0  0  0  0  0  0  0  0
    3.4785    2.6181    1.5446 C   0  0  0  0  0  0  0  0  0  0  0  0
    2.5332    3.2023    2.4751 N   0  0  0  0  0  0  0  0  0  0  0  0
    1.9240    2.4623    3.4104 C   0  0  0  0  0  0  0  0  0  0  0  0
    0.9791    3.2363    4.3331 C   0  0  0  0  0  0  0  0  0  0  0  0
    1.6620    3.5753    5.6678 C   0  0  0  0  0  0  0  0  0  0  0  0
    0.7326    4.4335    6.5247 C   0  0  0  0  0  0  0  0  0  0  0  0
    2.9684    4.3266    5.4125 C   0  0  0  0  0  0  0  0  0  0  0  0
   -0.2587    2.4656    4.4716 N   0  0  0  0  0  0  0  0  0  0  0  0
   -1.1922    2.7202    3.5370 C   0  0  0  0  0  0  0  0  0  0  0  0
   -2.4895    1.8938    3.4842 C   0  0  0  0  0  0  0  0  0  0  0  0
   -3.5339    2.6475    2.6548 C   0  0  0  0  0  0  0  0  0  0  0  0
   -4.8002    1.8093    2.4886 C   0  0  0  0  0  0  0  0  0  0  0  0
   -4.4918    0.5116    1.9440 N   0  0  0  0  0  0  0  0  0  0  0  0
   -4.9634    0.0313    0.7744 C   0  0  0  0  0  0  0  0  0  0  0  0
   -5.6982    0.9679   -0.0380 C   0  0  0  0  0  0  0  0  0  0  0  0
   -6.2311    1.6543   -0.8719 C   0  0  0  0  0  0  0  0  0  0  0  0
   -6.9575    2.4214   -1.8823 C   0  0  0  0  0  0  0  0  0  0  0  0
   -8.0277    1.6130   -2.4897 N   0  0  0  0  0  0  0  0  0  0  0  0
   -9.0679    1.2312   -1.5519 C   0  0  0  0  0  0  0  0  0  0  0  0
   -7.5373    0.4408   -3.1933 C   0  0  0  0  0  0  0  0  0  0  0  0
   -7.5509    3.6833   -1.2355 C   0  0  0  0  0  0  0  0  0  0  0  0
   -5.9541    2.8596   -2.9630 C   0  0  0  0  0  0  0  0  0  0  0  0
   -4.7887   -1.1176    0.3988 O   0  0  0  0  0  0  0  0  0  0  0  0
   -3.5543   -0.2507    2.7313 C   0  0  0  0  0  0  0  0  0  0  0  0
   -2.2400    0.5198    2.8559 C   0  0  0  0  0  0  0  0  0  0  0  0
   -1.0359    3.5986    2.6988 O   0  0  0  0  0  0  0  0  0  0  0  0
   -0.2409    1.3499    5.3929 C   0  0  0  0  0  0  0  0  0  0  0  0
    2.1018    1.2567    3.5117 O   0  0  0  0  0  0  0  0  0  0  0  0
    3.4693    3.3636    0.2119 C   0  0  0  0  0  0  0  0  0  0  0  0
    2.1034    3.3576   -0.4930 C   0  0  0  0  0  0  0  0  0  0  0  0
    1.3010    2.0889   -0.1964 C   0  0  0  0  0  0  0  0  0  0  0  0
    0.0237    2.1095   -0.8803 N   0  0  0  0  0  0  0  0  0  0  0  0
   -0.7126    3.3082   -0.4960 C   0  0  0  0  0  0  0  0  0  0  0  0
    0.1400    4.5462   -0.7731 C   0  0  0  0  0  0  0  0  0  0  0  0
    1.3707    4.4976   -0.0875 O   0  0  0  0  0  0  0  0  0  0  0  0
    5.5189    3.6946    2.2455 O   0  0  0  0  0  0  0  0  0  0  0  0
    6.7204    1.3421    3.0734 C   0  0  0  0  0  0  0  0  0  0  0  0
    7.4209    0.5994    1.9311 C   0  0  0  0  0  0  0  0  0  0  0  0
    6.6755   -0.6962    1.6084 C   0  0  0  0  0  0  0  0  0  0  0  0
    4.9425   -2.6944    0.7302 O   0  0  0  0  0  0  0  0  0  0  0  0
   -0.9734   -1.3413    0.0623 C   0  0  0  0  0  0  0  0  0  0  0  0
   -2.0661   -1.5312   -0.8112 C   0  0  0  0  0  0  0  0  0  0  0  0
   -2.4970   -0.4988   -1.6388 C   0  0  0  0  0  0  0  0  0  0  0  0
   -1.8081    0.6923   -1.6110 C   0  0  0  0  0  0  0  0  0  0  0  0
   -0.6944    0.8926   -0.7727 C   0  0  0  0  0  0  0  0  0  0  0  0
   -0.2957   -0.1222    0.0806 C   0  0  0  0  0  0  0  0  0  0  0  0
   -3.0117    1.7326    4.7711 F   0  0  0  0  0  0  0  0  0  0  0  0
   -5.1797   -3.3644    3.1091 H   0  0  0  0  0  0  0  0  0  0  0  0
   -4.4499   -3.1610    1.5141 H   0  0  0  0  0  0  0  0  0  0  0  0
   -5.2484   -4.6856    1.9407 H   0  0  0  0  0  0  0  0  0  0  0  0
   -3.5365   -5.1033    3.7034 H   0  0  0  0  0  0  0  0  0  0  0  0
   -2.4038   -3.9184    5.2978 H   0  0  0  0  0  0  0  0  0  0  0  0
   -1.8463   -2.2879    4.8450 H   0  0  0  0  0  0  0  0  0  0  0  0
   -3.5874   -2.6634    4.8569 H   0  0  0  0  0  0  0  0  0  0  0  0
   -2.5404   -8.5227    1.4345 H   0  0  0  0  0  0  0  0  0  0  0  0
   -1.4280   -7.8736   -0.7220 H   0  0  0  0  0  0  0  0  0  0  0  0
   -1.0930   -5.4510   -1.1695 H   0  0  0  0  0  0  0  0  0  0  0  0
   -3.9676   -4.2716   -0.8027 H   0  0  0  0  0  0  0  0  0  0  0  0
   -4.4569   -2.6481   -1.3184 H   0  0  0  0  0  0  0  0  0  0  0  0
   -2.5341   -4.5123   -2.8171 H   0  0  0  0  0  0  0  0  0  0  0  0
   -4.1807   -4.0983   -3.2966 H   0  0  0  0  0  0  0  0  0  0  0  0
   -2.9167   -2.8631   -3.3111 H   0  0  0  0  0  0  0  0  0  0  0  0
    0.4086   -1.7726    2.3410 H   0  0  0  0  0  0  0  0  0  0  0  0
   -0.2195   -3.3943    2.6442 H   0  0  0  0  0  0  0  0  0  0  0  0
    1.9762   -4.1695    3.4259 H   0  0  0  0  0  0  0  0  0  0  0  0
    3.4285   -3.8722    2.4678 H   0  0  0  0  0  0  0  0  0  0  0  0
    2.5697   -2.5206    3.2145 H   0  0  0  0  0  0  0  0  0  0  0  0
    0.7650   -5.3542    1.5029 H   0  0  0  0  0  0  0  0  0  0  0  0
    0.8767   -4.6469   -0.1100 H   0  0  0  0  0  0  0  0  0  0  0  0
    2.3335   -5.2264    0.7016 H   0  0  0  0  0  0  0  0  0  0  0  0
    2.9474   -3.1189   -0.1886 H   0  0  0  0  0  0  0  0  0  0  0  0
    1.5570   -1.9983   -0.2331 H   0  0  0  0  0  0  0  0  0  0  0  0
    5.0856    0.2765    0.5054 H   0  0  0  0  0  0  0  0  0  0  0  0
    3.7030    0.2956    2.7168 H   0  0  0  0  0  0  0  0  0  0  0  0
    3.1817    1.5795    1.3821 H   0  0  0  0  0  0  0  0  0  0  0  0
    2.3183    4.1793    2.3497 H   0  0  0  0  0  0  0  0  0  0  0  0
    0.6957    4.1722    3.8399 H   0  0  0  0  0  0  0  0  0  0  0  0
    1.9041    2.6473    6.1929 H   0  0  0  0  0  0  0  0  0  0  0  0
    1.1755    4.6047    7.5029 H   0  0  0  0  0  0  0  0  0  0  0  0
    0.5719    5.3980    6.0478 H   0  0  0  0  0  0  0  0  0  0  0  0
   -0.2368    3.9620    6.6631 H   0  0  0  0  0  0  0  0  0  0  0  0
    3.4175    4.6104    6.3613 H   0  0  0  0  0  0  0  0  0  0  0  0
    3.6842    3.7123    4.8720 H   0  0  0  0  0  0  0  0  0  0  0  0
    2.7877    5.2332    4.8390 H   0  0  0  0  0  0  0  0  0  0  0  0
   -3.7732    3.5899    3.1489 H   0  0  0  0  0  0  0  0  0  0  0  0
   -3.0992    2.8711    1.6812 H   0  0  0  0  0  0  0  0  0  0  0  0
   -5.2703    1.6710    3.4714 H   0  0  0  0  0  0  0  0  0  0  0  0
   -5.5046    2.3207    1.8300 H   0  0  0  0  0  0  0  0  0  0  0  0
   -8.6887    0.6330   -0.7102 H   0  0  0  0  0  0  0  0  0  0  0  0
   -9.5678    2.1150   -1.1639 H   0  0  0  0  0  0  0  0  0  0  0  0
   -9.8093    0.6396   -2.0870 H   0  0  0  0  0  0  0  0  0  0  0  0
   -6.9744   -0.2446   -2.5436 H   0  0  0  0  0  0  0  0  0  0  0  0
   -8.3933   -0.0954   -3.6004 H   0  0  0  0  0  0  0  0  0  0  0  0
   -6.9070    0.7400   -4.0268 H   0  0  0  0  0  0  0  0  0  0  0  0
   -8.0913    3.4495   -0.3222 H   0  0  0  0  0  0  0  0  0  0  0  0
   -6.7517    4.3756   -0.9818 H   0  0  0  0  0  0  0  0  0  0  0  0
   -8.2252    4.1640   -1.9393 H   0  0  0  0  0  0  0  0  0  0  0  0
   -5.3021    3.6340   -2.5661 H   0  0  0  0  0  0  0  0  0  0  0  0
   -5.3287    2.0316   -3.2848 H   0  0  0  0  0  0  0  0  0  0  0  0
   -6.4975    3.2562   -3.8165 H   0  0  0  0  0  0  0  0  0  0  0  0
   -3.9761   -0.4235    3.7282 H   0  0  0  0  0  0  0  0  0  0  0  0
   -3.3745   -1.2080    2.2417 H   0  0  0  0  0  0  0  0  0  0  0  0
   -1.8115    0.6719    1.8632 H   0  0  0  0  0  0  0  0  0  0  0  0
   -1.5349   -0.0685    3.4404 H   0  0  0  0  0  0  0  0  0  0  0  0
   -0.0961    1.7096    6.4115 H   0  0  0  0  0  0  0  0  0  0  0  0
   -1.1740    0.8024    5.3682 H   0  0  0  0  0  0  0  0  0  0  0  0
    0.5811    0.6819    5.1280 H   0  0  0  0  0  0  0  0  0  0  0  0
    3.7681    4.3997    0.3799 H   0  0  0  0  0  0  0  0  0  0  0  0
    4.2115    2.9013   -0.4409 H   0  0  0  0  0  0  0  0  0  0  0  0
    2.2627    3.4219   -1.5840 H   0  0  0  0  0  0  0  0  0  0  0  0
    1.8639    1.2177   -0.5398 H   0  0  0  0  0  0  0  0  0  0  0  0
    1.1366    2.0326    0.8889 H   0  0  0  0  0  0  0  0  0  0  0  0
   -1.6399    3.3656   -1.0666 H   0  0  0  0  0  0  0  0  0  0  0  0
   -0.9472    3.2971    0.5793 H   0  0  0  0  0  0  0  0  0  0  0  0
    0.3268    4.6341   -1.8549 H   0  0  0  0  0  0  0  0  0  0  0  0
   -0.3714    5.4408   -0.4153 H   0  0  0  0  0  0  0  0  0  0  0  0
    7.1493    2.3322    3.2263 H   0  0  0  0  0  0  0  0  0  0  0  0
    6.7708    0.7612    3.9963 H   0  0  0  0  0  0  0  0  0  0  0  0
    7.4349    1.2454    1.0499 H   0  0  0  0  0  0  0  0  0  0  0  0
    8.4515    0.3815    2.2100 H   0  0  0  0  0  0  0  0  0  0  0  0
    6.7541   -1.3903    2.4456 H   0  0  0  0  0  0  0  0  0  0  0  0
    7.0954   -1.1769    0.7254 H   0  0  0  0  0  0  0  0  0  0  0  0
   -3.3521   -0.6183   -2.2863 H   0  0  0  0  0  0  0  0  0  0  0  0
   -2.1130    1.4962   -2.2640 H   0  0  0  0  0  0  0  0  0  0  0  0
    0.5264   -0.0058    0.7672 H   0  0  0  0  0  0  0  0  0  0  0  0
  1  2  1  0  0  0  0
  2  3  1  0  0  0  0
  2  5  1  0  0  0  0
  3  4  1  0  0  0  0
  5  6  2  0  0  0  0
  5 10  1  0  0  0  0
  6  7  1  0  0  0  0
  7  8  2  0  0  0  0
  8  9  1  0  0  0  0
  9 10  2  0  0  0  0
 10 11  1  0  0  0  0
 11 12  1  0  0  0  0
 11 15  2  0  0  0  0
 12 13  1  0  0  0  0
 12 68  1  0  0  0  0
 13 14  1  0  0  0  0
 15 16  1  0  0  0  0
 15 67  1  0  0  0  0
 16 17  1  0  0  0  0
 17 18  1  0  0  0  0
 17 19  1  0  0  0  0
 17 20  1  0  0  0  0
 20 21  1  0  0  0  0
 21 22  1  0  0  0  0
 22 23  1  0  0  0  0
 22 66  2  0  0  0  0
 23 24  1  0  0  0  0
 23 65  1  0  0  0  0
 24 25  1  0  0  0  0
 25 26  1  0  0  0  0
 25 63  1  0  0  0  0
 26 27  1  0  0  0  0
 26 62  2  0  0  0  0
 27 28  1  0  0  0  0
 27 55  1  0  0  0  0
 28 29  1  0  0  0  0
 29 30  1  0  0  0  0
 29 54  2  0  0  0  0
 30 31  1  0  0  0  0
 30 34  1  0  0  0  0
 31 32  1  0  0  0  0
 31 33  1  0  0  0  0
 34 35  1  0  0  0  0
 34 53  1  0  0  0  0
 35 36  1  0  0  0  0
 35 52  2  0  0  0  0
 36 37  1  0  0  0  0
 36 51  1  0  0  0  0
 36 73  1  0  0  0  0
 37 38  1  0  0  0  0
 38 39  1  0  0  0  0
 39 40  1  0  0  0  0
 39 50  1  0  0  0  0
 40 41  1  0  0  0  0
 40 49  2  0  0  0  0
 42 43  1  0  0  0  0
 43 44  1  0  0  0  0
 43 47  1  0  0  0  0
 43 48  1  0  0  0  0
 44 45  1  0  0  0  0
 44 46  1  0  0  0  0
 50 51  1  0  0  0  0
 55 56  1  0  0  0  0
 56 57  1  0  0  0  0
 56 61  1  0  0  0  0
 57 58  1  0  0  0  0
 58 59  1  0  0  0  0
 58 71  1  0  0  0  0
 59 60  1  0  0  0  0
 60 61  1  0  0  0  0
 63 64  1  0  0  0  0
 64 65  1  0  0  0  0
 67 68  2  0  0  0  0
 67 72  1  0  0  0  0
 68 69  1  0  0  0  0
 69 70  2  0  0  0  0
 70 71  1  0  0  0  0
 71 72  2  0  0  0  0
 41 42  3  0  0  0  0
  1 74  1  0  0  0  0
  1 75  1  0  0  0  0
  1 76  1  0  0  0  0
  2 77  1  0  0  0  0
  4 78  1  0  0  0  0
  4 79  1  0  0  0  0
  4 80  1  0  0  0  0
  7 81  1  0  0  0  0
  8 82  1  0  0  0  0
  9 83  1  0  0  0  0
 13 84  1  0  0  0  0
 13 85  1  0  0  0  0
 14 86  1  0  0  0  0
 14 87  1  0  0  0  0
 14 88  1  0  0  0  0
 16 89  1  0  0  0  0
 16 90  1  0  0  0  0
 18 91  1  0  0  0  0
 18 92  1  0  0  0  0
 18 93  1  0  0  0  0
 19 94  1  0  0  0  0
 19 95  1  0  0  0  0
 19 96  1  0  0  0  0
 20 97  1  0  0  0  0
 20 98  1  0  0  0  0
 23 99  1  0  0  0  0
 24100  1  0  0  0  0
 27101  1  0  0  0  0
 28102  1  0  0  0  0
 30103  1  0  0  0  0
 31104  1  0  0  0  0
 32105  1  0  0  0  0
 32106  1  0  0  0  0
 32107  1  0  0  0  0
 33108  1  0  0  0  0
 33109  1  0  0  0  0
 33110  1  0  0  0  0
 37111  1  0  0  0  0
 37112  1  0  0  0  0
 38113  1  0  0  0  0
 38114  1  0  0  0  0
 45115  1  0  0  0  0
 45116  1  0  0  0  0
 45117  1  0  0  0  0
 46118  1  0  0  0  0
 46119  1  0  0  0  0
 46120  1  0  0  0  0
 47121  1  0  0  0  0
 47122  1  0  0  0  0
 47123  1  0  0  0  0
 48124  1  0  0  0  0
 48125  1  0  0  0  0
 48126  1  0  0  0  0
 50127  1  0  0  0  0
 50128  1  0  0  0  0
 51129  1  0  0  0  0
 51130  1  0  0  0  0
 53131  1  0  0  0  0
 53132  1  0  0  0  0
 53133  1  0  0  0  0
 55134  1  0  0  0  0
 55135  1  0  0  0  0
 56136  1  0  0  0  0
 57137  1  0  0  0  0
 57138  1  0  0  0  0
 59139  1  0  0  0  0
 59140  1  0  0  0  0
 60141  1  0  0  0  0
 60142  1  0  0  0  0
 63143  1  0  0  0  0
 63144  1  0  0  0  0
 64145  1  0  0  0  0
 64146  1  0  0  0  0
 65147  1  0  0  0  0
 65148  1  0  0  0  0
 69149  1  0  0  0  0
 70150  1  0  0  0  0
 72151  1  0  0  0  0
M  END
$$$$
