 energy: -221.267271018261 gnorm: 0.000489165114 xtb: 6.7.1 (edcfbbe)
          08182520403D

151157  0     0  0            999 V2000
   -0.0158   15.4116  -11.2022 C   0  0  0  0  0  0  0  0  0  0  0  0
    0.9333   14.3208  -11.7163 C   0  0  0  0  0  0  0  0  0  0  0  0
    0.2565   13.1860  -12.2231 O   0  0  0  0  0  0  0  0  0  0  0  0
   -0.5102   13.4242  -13.3739 C   0  0  0  0  0  0  0  0  0  0  0  0
    1.8542   13.8624  -10.6077 C   0  0  0  0  0  0  0  0  0  0  0  0
    3.0794   14.3626  -10.6677 N   0  0  0  0  0  0  0  0  0  0  0  0
    3.9643   14.0295   -9.7461 C   0  0  0  0  0  0  0  0  0  0  0  0
    3.6805   13.1559   -8.7097 C   0  0  0  0  0  0  0  0  0  0  0  0
    2.4014   12.6321   -8.6381 C   0  0  0  0  0  0  0  0  0  0  0  0
    1.4495   12.9887   -9.5895 C   0  0  0  0  0  0  0  0  0  0  0  0
    0.0772   12.4682   -9.4907 C   0  0  0  0  0  0  0  0  0  0  0  0
   -0.3068   11.3208  -10.1303 N   0  0  0  0  0  0  0  0  0  0  0  0
    0.5495   10.4550  -10.8926 C   0  0  0  0  0  0  0  0  0  0  0  0
    1.1455    9.3480  -10.0232 C   0  0  0  0  0  0  0  0  0  0  0  0
   -0.9804   13.0080   -8.7922 C   0  0  0  0  0  0  0  0  0  0  0  0
   -0.8857   14.2097   -7.9034 C   0  0  0  0  0  0  0  0  0  0  0  0
   -0.8986   13.9348   -6.3714 C   0  0  0  0  0  0  0  0  0  0  0  0
   -2.3315   13.7981   -5.8520 C   0  0  0  0  0  0  0  0  0  0  0  0
   -0.2451   15.1281   -5.6656 C   0  0  0  0  0  0  0  0  0  0  0  0
   -0.1002   12.6514   -6.0473 C   0  0  0  0  0  0  0  0  0  0  0  0
   -0.6428   11.9429   -4.9275 O   0  0  0  0  0  0  0  0  0  0  0  0
   -1.2957   10.8216   -5.1921 C   0  0  0  0  0  0  0  0  0  0  0  0
   -2.0292   10.2781   -3.9736 C   0  0  0  0  0  0  0  0  0  0  0  0
   -2.3169    8.8711   -4.2103 N   0  0  0  0  0  0  0  0  0  0  0  0
   -3.2122    8.3637   -3.2628 N   0  0  0  0  0  0  0  0  0  0  0  0
   -4.5020    8.0390   -3.4522 C   0  0  0  0  0  0  0  0  0  0  0  0
   -5.0885    8.2988   -4.8467 C   0  0  0  0  0  0  0  0  0  0  0  0
   -6.2226    7.4264   -5.0288 N   0  0  0  0  0  0  0  0  0  0  0  0
   -6.3155    6.5866   -6.0777 C   0  0  0  0  0  0  0  0  0  0  0  0
   -7.5550    5.6878   -6.0412 C   0  0  0  0  0  0  0  0  0  0  0  0
   -7.2357    4.3070   -5.4322 C   0  0  0  0  0  0  0  0  0  0  0  0
   -8.4395    3.3788   -5.5821 C   0  0  0  0  0  0  0  0  0  0  0  0
   -6.8751    4.4576   -3.9553 C   0  0  0  0  0  0  0  0  0  0  0  0
   -8.1355    5.6078   -7.3773 N   0  0  0  0  0  0  0  0  0  0  0  0
   -9.2707    6.3015   -7.5782 C   0  0  0  0  0  0  0  0  0  0  0  0
   -9.9718    6.2484   -8.9485 C   0  0  0  0  0  0  0  0  0  0  0  0
  -10.8014    7.5194   -9.1544 C   0  0  0  0  0  0  0  0  0  0  0  0
  -11.6394    7.4066  -10.4297 C   0  0  0  0  0  0  0  0  0  0  0  0
  -12.4599    6.2237  -10.3868 N   0  0  0  0  0  0  0  0  0  0  0  0
  -13.8118    6.2154  -10.2725 C   0  0  0  0  0  0  0  0  0  0  0  0
  -14.4342    7.5155  -10.3523 C   0  0  0  0  0  0  0  0  0  0  0  0
  -15.1025    8.5160  -10.3898 C   0  0  0  0  0  0  0  0  0  0  0  0
  -15.7846    9.8038  -10.4865 C   0  0  0  0  0  0  0  0  0  0  0  0
  -17.0446    9.7202   -9.7444 N   0  0  0  0  0  0  0  0  0  0  0  0
  -16.9114    9.2247   -8.3911 C   0  0  0  0  0  0  0  0  0  0  0  0
  -17.8611   10.9124   -9.7730 C   0  0  0  0  0  0  0  0  0  0  0  0
  -14.8116   10.8908   -9.9789 C   0  0  0  0  0  0  0  0  0  0  0  0
  -16.0731   10.0239  -11.9824 C   0  0  0  0  0  0  0  0  0  0  0  0
  -14.4637    5.1964  -10.1369 O   0  0  0  0  0  0  0  0  0  0  0  0
  -11.7162    4.9945  -10.2598 C   0  0  0  0  0  0  0  0  0  0  0  0
  -10.8781    5.0106   -8.9798 C   0  0  0  0  0  0  0  0  0  0  0  0
   -9.8349    6.9089   -6.6783 O   0  0  0  0  0  0  0  0  0  0  0  0
   -7.3610    4.9647   -8.4179 C   0  0  0  0  0  0  0  0  0  0  0  0
   -5.5072    6.5787   -6.9847 O   0  0  0  0  0  0  0  0  0  0  0  0
   -5.5117    9.7782   -4.9501 C   0  0  0  0  0  0  0  0  0  0  0  0
   -5.0183   10.4606   -6.2332 C   0  0  0  0  0  0  0  0  0  0  0  0
   -5.7566    9.9855   -7.4990 C   0  0  0  0  0  0  0  0  0  0  0  0
   -5.5984   10.9767   -8.5485 N   0  0  0  0  0  0  0  0  0  0  0  0
   -6.3136   12.1862   -8.1850 C   0  0  0  0  0  0  0  0  0  0  0  0
   -6.2502   12.4557   -6.6635 C   0  0  0  0  0  0  0  0  0  0  0  0
   -5.1014   11.8749   -6.0861 O   0  0  0  0  0  0  0  0  0  0  0  0
   -5.1916    7.5537   -2.5688 O   0  0  0  0  0  0  0  0  0  0  0  0
   -2.5895    8.3288   -1.9528 C   0  0  0  0  0  0  0  0  0  0  0  0
   -2.1569    9.7437   -1.5555 C   0  0  0  0  0  0  0  0  0  0  0  0
   -1.2750   10.3580   -2.6460 C   0  0  0  0  0  0  0  0  0  0  0  0
   -1.3624   10.2880   -6.2705 O   0  0  0  0  0  0  0  0  0  0  0  0
   -2.0974   12.1526   -9.0391 C   0  0  0  0  0  0  0  0  0  0  0  0
   -1.6244   11.0944   -9.8513 C   0  0  0  0  0  0  0  0  0  0  0  0
   -2.4534   10.0400  -10.2165 C   0  0  0  0  0  0  0  0  0  0  0  0
   -3.7492   10.0490   -9.7594 C   0  0  0  0  0  0  0  0  0  0  0  0
   -4.2471   11.1031   -8.9746 C   0  0  0  0  0  0  0  0  0  0  0  0
   -3.4346   12.1693   -8.6421 C   0  0  0  0  0  0  0  0  0  0  0  0
   -9.0728    6.1748  -10.0073 F   0  0  0  0  0  0  0  0  0  0  0  0
   -0.7730   14.9635  -10.5653 H   0  0  0  0  0  0  0  0  0  0  0  0
    0.5515   16.1424  -10.6322 H   0  0  0  0  0  0  0  0  0  0  0  0
   -0.5003   15.9211  -12.0314 H   0  0  0  0  0  0  0  0  0  0  0  0
    1.5722   14.7518  -12.5057 H   0  0  0  0  0  0  0  0  0  0  0  0
   -1.4044   14.0173  -13.1558 H   0  0  0  0  0  0  0  0  0  0  0  0
    0.0797   13.9345  -14.1455 H   0  0  0  0  0  0  0  0  0  0  0  0
   -0.8166   12.4460  -13.7411 H   0  0  0  0  0  0  0  0  0  0  0  0
    4.9418   14.4804   -9.8556 H   0  0  0  0  0  0  0  0  0  0  0  0
    4.4335   12.8927   -7.9831 H   0  0  0  0  0  0  0  0  0  0  0  0
    2.1325   11.9472   -7.8469 H   0  0  0  0  0  0  0  0  0  0  0  0
   -0.0407   10.0168  -11.7015 H   0  0  0  0  0  0  0  0  0  0  0  0
    1.3411   11.0609  -11.3393 H   0  0  0  0  0  0  0  0  0  0  0  0
    1.8037    9.7708   -9.2678 H   0  0  0  0  0  0  0  0  0  0  0  0
    0.3526    8.7994   -9.5203 H   0  0  0  0  0  0  0  0  0  0  0  0
    1.7194    8.6579  -10.6361 H   0  0  0  0  0  0  0  0  0  0  0  0
    0.0508   14.7204   -8.1435 H   0  0  0  0  0  0  0  0  0  0  0  0
   -1.7056   14.8998   -8.1181 H   0  0  0  0  0  0  0  0  0  0  0  0
   -2.3373   13.7776   -4.7639 H   0  0  0  0  0  0  0  0  0  0  0  0
   -2.9281   14.6479   -6.1751 H   0  0  0  0  0  0  0  0  0  0  0  0
   -2.8003   12.8876   -6.2104 H   0  0  0  0  0  0  0  0  0  0  0  0
   -0.2290   14.9681   -4.5899 H   0  0  0  0  0  0  0  0  0  0  0  0
    0.7779   15.2703   -6.0092 H   0  0  0  0  0  0  0  0  0  0  0  0
   -0.8035   16.0388   -5.8698 H   0  0  0  0  0  0  0  0  0  0  0  0
   -0.1194   11.9756   -6.9069 H   0  0  0  0  0  0  0  0  0  0  0  0
    0.9318   12.8955   -5.7860 H   0  0  0  0  0  0  0  0  0  0  0  0
   -2.9491   10.8894   -3.8984 H   0  0  0  0  0  0  0  0  0  0  0  0
   -2.6064    8.7020   -5.1674 H   0  0  0  0  0  0  0  0  0  0  0  0
   -4.3808    8.0397   -5.6408 H   0  0  0  0  0  0  0  0  0  0  0  0
   -6.8178    7.3204   -4.2190 H   0  0  0  0  0  0  0  0  0  0  0  0
   -8.3223    6.1660   -5.4231 H   0  0  0  0  0  0  0  0  0  0  0  0
   -6.3751    3.8704   -5.9495 H   0  0  0  0  0  0  0  0  0  0  0  0
   -9.3182    3.8282   -5.1249 H   0  0  0  0  0  0  0  0  0  0  0  0
   -8.6600    3.1818   -6.6275 H   0  0  0  0  0  0  0  0  0  0  0  0
   -8.2417    2.4294   -5.0905 H   0  0  0  0  0  0  0  0  0  0  0  0
   -7.7031    4.8956   -3.4018 H   0  0  0  0  0  0  0  0  0  0  0  0
   -6.6633    3.4804   -3.5278 H   0  0  0  0  0  0  0  0  0  0  0  0
   -5.9961    5.0811   -3.8159 H   0  0  0  0  0  0  0  0  0  0  0  0
  -11.4405    7.6556   -8.2826 H   0  0  0  0  0  0  0  0  0  0  0  0
  -10.1267    8.3735   -9.2282 H   0  0  0  0  0  0  0  0  0  0  0  0
  -12.2768    8.2851  -10.5413 H   0  0  0  0  0  0  0  0  0  0  0  0
  -10.9699    7.3391  -11.2960 H   0  0  0  0  0  0  0  0  0  0  0  0
  -17.9060    8.9804   -8.0178 H   0  0  0  0  0  0  0  0  0  0  0  0
  -16.3111    8.3176   -8.3907 H   0  0  0  0  0  0  0  0  0  0  0  0
  -16.4579    9.9547   -7.7019 H   0  0  0  0  0  0  0  0  0  0  0  0
  -18.8387   10.6587   -9.3622 H   0  0  0  0  0  0  0  0  0  0  0  0
  -17.4488   11.7405   -9.1748 H   0  0  0  0  0  0  0  0  0  0  0  0
  -18.0047   11.2515  -10.7952 H   0  0  0  0  0  0  0  0  0  0  0  0
  -14.5458   10.7125   -8.9394 H   0  0  0  0  0  0  0  0  0  0  0  0
  -13.9016   10.8769  -10.5741 H   0  0  0  0  0  0  0  0  0  0  0  0
  -15.2673   11.8742  -10.0665 H   0  0  0  0  0  0  0  0  0  0  0  0
  -16.8882    9.3761  -12.2931 H   0  0  0  0  0  0  0  0  0  0  0  0
  -16.3371   11.0590  -12.1827 H   0  0  0  0  0  0  0  0  0  0  0  0
  -15.1890    9.7785  -12.5665 H   0  0  0  0  0  0  0  0  0  0  0  0
  -12.4317    4.1702  -10.2378 H   0  0  0  0  0  0  0  0  0  0  0  0
  -11.0574    4.8840  -11.1289 H   0  0  0  0  0  0  0  0  0  0  0  0
  -10.2769    4.1022   -8.9242 H   0  0  0  0  0  0  0  0  0  0  0  0
  -11.5307    5.0507   -8.1065 H   0  0  0  0  0  0  0  0  0  0  0  0
   -6.5622    4.3945   -7.9563 H   0  0  0  0  0  0  0  0  0  0  0  0
   -7.9801    4.2901   -9.0087 H   0  0  0  0  0  0  0  0  0  0  0  0
   -6.9038    5.7007   -9.0795 H   0  0  0  0  0  0  0  0  0  0  0  0
   -6.6014    9.8330   -4.9027 H   0  0  0  0  0  0  0  0  0  0  0  0
   -5.1265   10.3450   -4.0984 H   0  0  0  0  0  0  0  0  0  0  0  0
   -3.9456   10.2658   -6.3668 H   0  0  0  0  0  0  0  0  0  0  0  0
   -5.3542    9.0260   -7.8230 H   0  0  0  0  0  0  0  0  0  0  0  0
   -6.8263    9.8626   -7.3028 H   0  0  0  0  0  0  0  0  0  0  0  0
   -5.9078   13.0215   -8.7551 H   0  0  0  0  0  0  0  0  0  0  0  0
   -7.3622   12.0521   -8.4802 H   0  0  0  0  0  0  0  0  0  0  0  0
   -6.1677   13.5233   -6.4509 H   0  0  0  0  0  0  0  0  0  0  0  0
   -7.1555   12.0743   -6.1705 H   0  0  0  0  0  0  0  0  0  0  0  0
   -3.3163    7.9208   -1.2502 H   0  0  0  0  0  0  0  0  0  0  0  0
   -1.7168    7.6723   -2.0075 H   0  0  0  0  0  0  0  0  0  0  0  0
   -3.0453   10.3631   -1.4134 H   0  0  0  0  0  0  0  0  0  0  0  0
   -1.6160    9.7030   -0.6103 H   0  0  0  0  0  0  0  0  0  0  0  0
   -0.3490    9.7887   -2.7358 H   0  0  0  0  0  0  0  0  0  0  0  0
   -1.0307   11.3931   -2.4112 H   0  0  0  0  0  0  0  0  0  0  0  0
   -2.0949    9.2284  -10.8315 H   0  0  0  0  0  0  0  0  0  0  0  0
   -4.4157    9.2375  -10.0076 H   0  0  0  0  0  0  0  0  0  0  0  0
   -3.8137   12.9949   -8.0635 H   0  0  0  0  0  0  0  0  0  0  0  0
  1  2  1  0  0  0  0
  2  3  1  0  0  0  0
  2  5  1  0  0  0  0
  3  4  1  0  0  0  0
  5  6  2  0  0  0  0
  5 10  1  0  0  0  0
  6  7  1  0  0  0  0
  7  8  2  0  0  0  0
  8  9  1  0  0  0  0
  9 10  2  0  0  0  0
 10 11  1  0  0  0  0
 11 12  1  0  0  0  0
 11 15  2  0  0  0  0
 12 13  1  0  0  0  0
 12 68  1  0  0  0  0
 13 14  1  0  0  0  0
 15 16  1  0  0  0  0
 15 67  1  0  0  0  0
 16 17  1  0  0  0  0
 17 18  1  0  0  0  0
 17 19  1  0  0  0  0
 17 20  1  0  0  0  0
 20 21  1  0  0  0  0
 21 22  1  0  0  0  0
 22 23  1  0  0  0  0
 22 66  2  0  0  0  0
 23 24  1  0  0  0  0
 23 65  1  0  0  0  0
 24 25  1  0  0  0  0
 25 26  1  0  0  0  0
 25 63  1  0  0  0  0
 26 27  1  0  0  0  0
 26 62  2  0  0  0  0
 27 28  1  0  0  0  0
 27 55  1  0  0  0  0
 28 29  1  0  0  0  0
 29 30  1  0  0  0  0
 29 54  2  0  0  0  0
 30 31  1  0  0  0  0
 30 34  1  0  0  0  0
 31 32  1  0  0  0  0
 31 33  1  0  0  0  0
 34 35  1  0  0  0  0
 34 53  1  0  0  0  0
 35 36  1  0  0  0  0
 35 52  2  0  0  0  0
 36 37  1  0  0  0  0
 36 51  1  0  0  0  0
 36 73  1  0  0  0  0
 37 38  1  0  0  0  0
 38 39  1  0  0  0  0
 39 40  1  0  0  0  0
 39 50  1  0  0  0  0
 40 41  1  0  0  0  0
 40 49  2  0  0  0  0
 42 43  1  0  0  0  0
 43 44  1  0  0  0  0
 43 47  1  0  0  0  0
 43 48  1  0  0  0  0
 44 45  1  0  0  0  0
 44 46  1  0  0  0  0
 50 51  1  0  0  0  0
 55 56  1  0  0  0  0
 56 57  1  0  0  0  0
 56 61  1  0  0  0  0
 57 58  1  0  0  0  0
 58 59  1  0  0  0  0
 58 71  1  0  0  0  0
 59 60  1  0  0  0  0
 60 61  1  0  0  0  0
 63 64  1  0  0  0  0
 64 65  1  0  0  0  0
 67 68  2  0  0  0  0
 67 72  1  0  0  0  0
 68 69  1  0  0  0  0
 69 70  2  0  0  0  0
 70 71  1  0  0  0  0
 71 72  2  0  0  0  0
 41 42  3  0  0  0  0
  1 74  1  0  0  0  0
  1 75  1  0  0  0  0
  1 76  1  0  0  0  0
  2 77  1  0  0  0  0
  4 78  1  0  0  0  0
  4 79  1  0  0  0  0
  4 80  1  0  0  0  0
  7 81  1  0  0  0  0
  8 82  1  0  0  0  0
  9 83  1  0  0  0  0
 13 84  1  0  0  0  0
 13 85  1  0  0  0  0
 14 86  1  0  0  0  0
 14 87  1  0  0  0  0
 14 88  1  0  0  0  0
 16 89  1  0  0  0  0
 16 90  1  0  0  0  0
 18 91  1  0  0  0  0
 18 92  1  0  0  0  0
 18 93  1  0  0  0  0
 19 94  1  0  0  0  0
 19 95  1  0  0  0  0
 19 96  1  0  0  0  0
 20 97  1  0  0  0  0
 20 98  1  0  0  0  0
 23 99  1  0  0  0  0
 24100  1  0  0  0  0
 27101  1  0  0  0  0
 28102  1  0  0  0  0
 30103  1  0  0  0  0
 31104  1  0  0  0  0
 32105  1  0  0  0  0
 32106  1  0  0  0  0
 32107  1  0  0  0  0
 33108  1  0  0  0  0
 33109  1  0  0  0  0
 33110  1  0  0  0  0
 37111  1  0  0  0  0
 37112  1  0  0  0  0
 38113  1  0  0  0  0
 38114  1  0  0  0  0
 45115  1  0  0  0  0
 45116  1  0  0  0  0
 45117  1  0  0  0  0
 46118  1  0  0  0  0
 46119  1  0  0  0  0
 46120  1  0  0  0  0
 47121  1  0  0  0  0
 47122  1  0  0  0  0
 47123  1  0  0  0  0
 48124  1  0  0  0  0
 48125  1  0  0  0  0
 48126  1  0  0  0  0
 50127  1  0  0  0  0
 50128  1  0  0  0  0
 51129  1  0  0  0  0
 51130  1  0  0  0  0
 53131  1  0  0  0  0
 53132  1  0  0  0  0
 53133  1  0  0  0  0
 55134  1  0  0  0  0
 55135  1  0  0  0  0
 56136  1  0  0  0  0
 57137  1  0  0  0  0
 57138  1  0  0  0  0
 59139  1  0  0  0  0
 59140  1  0  0  0  0
 60141  1  0  0  0  0
 60142  1  0  0  0  0
 63143  1  0  0  0  0
 63144  1  0  0  0  0
 64145  1  0  0  0  0
 64146  1  0  0  0  0
 65147  1  0  0  0  0
 65148  1  0  0  0  0
 69149  1  0  0  0  0
 70150  1  0  0  0  0
 72151  1  0  0  0  0
M  END
$$$$
