mol_ETKDG2_12
     RDKit          3D

151157  0  0  0  0  0  0  0  0999 V2000
    2.7017    8.1115   -7.0006 C   0  0  0  0  0  0  0  0  0  0  0  0
    2.5753    6.5836   -6.9685 C   0  0  2  0  0  0  0  0  0  0  0  0
    3.8326    5.9453   -7.2551 O   0  0  0  0  0  0  0  0  0  0  0  0
    4.3231    6.1232   -8.5761 C   0  0  0  0  0  0  0  0  0  0  0  0
    1.4105    6.0651   -7.8120 C   0  0  0  0  0  0  0  0  0  0  0  0
    1.1916    6.7077   -8.9986 N   0  0  0  0  0  0  0  0  0  0  0  0
    0.1803    6.2764   -9.7825 C   0  0  0  0  0  0  0  0  0  0  0  0
   -0.6482    5.2240   -9.4525 C   0  0  0  0  0  0  0  0  0  0  0  0
   -0.4222    4.5676   -8.2476 C   0  0  0  0  0  0  0  0  0  0  0  0
    0.6187    4.9761   -7.4034 C   0  0  0  0  0  0  0  0  0  0  0  0
    0.8264    4.2586   -6.1391 C   0  0  0  0  0  0  0  0  0  0  0  0
    0.0714    4.4841   -5.0033 N   0  0  0  0  0  0  0  0  0  0  0  0
   -1.0797    5.3732   -4.9050 C   0  0  0  0  0  0  0  0  0  0  0  0
   -0.6950    6.7912   -4.5204 C   0  0  0  0  0  0  0  0  0  0  0  0
    1.7853    3.2958   -5.8204 C   0  0  0  0  0  0  0  0  0  0  0  0
    2.8124    2.7209   -6.7673 C   0  0  0  0  0  0  0  0  0  0  0  0
    2.4765    1.3483   -7.4257 C   0  0  0  0  0  0  0  0  0  0  0  0
    3.4836    1.1333   -8.5812 C   0  0  0  0  0  0  0  0  0  0  0  0
    1.0618    1.3142   -8.0268 C   0  0  0  0  0  0  0  0  0  0  0  0
    2.6152    0.1803   -6.4254 C   0  0  0  0  0  0  0  0  0  0  0  0
    3.9723    0.1080   -5.9616 O   0  0  0  0  0  0  0  0  0  0  0  0
    4.2143   -0.8504   -5.0248 C   0  0  0  0  0  0  0  0  0  0  0  0
    5.6793   -0.7788   -4.5853 C   0  0  1  0  0  0  0  0  0  0  0  0
    5.9451   -1.8188   -3.5764 N   0  0  0  0  0  0  0  0  0  0  0  0
    7.2584   -1.7024   -3.0665 N   0  0  0  0  0  0  0  0  0  0  0  0
    7.5883   -1.7105   -1.7055 C   0  0  0  0  0  0  0  0  0  0  0  0
    6.4541   -1.4428   -0.6801 C   0  0  1  0  0  0  0  0  0  0  0  0
    6.8245   -2.0748    0.5831 N   0  0  0  0  0  0  0  0  0  0  0  0
    6.7907   -3.4433    0.7455 C   0  0  0  0  0  0  0  0  0  0  0  0
    7.2570   -3.9026    2.1482 C   0  0  2  0  0  0  0  0  0  0  0  0
    7.8605   -5.3317    2.1342 C   0  0  0  0  0  0  0  0  0  0  0  0
    8.2008   -5.8083    3.5518 C   0  0  0  0  0  0  0  0  0  0  0  0
    9.1382   -5.3690    1.2830 C   0  0  0  0  0  0  0  0  0  0  0  0
    6.1071   -3.7250    3.0756 N   0  0  0  0  0  0  0  0  0  0  0  0
    5.9593   -2.4451    3.6343 C   0  0  0  0  0  0  0  0  0  0  0  0
    4.7578   -2.1682    4.5694 C   0  0  0  0  0  0  0  0  0  0  0  0
    4.9658   -2.8878    5.9125 C   0  0  0  0  0  0  0  0  0  0  0  0
    3.8574   -2.5237    6.8963 C   0  0  0  0  0  0  0  0  0  0  0  0
    3.7750   -1.0762    7.0294 N   0  0  0  0  0  0  0  0  0  0  0  0
    4.2917   -0.4728    8.1716 C   0  0  0  0  0  0  0  0  0  0  0  0
    4.4544    0.9645    8.1744 C   0  0  0  0  0  0  0  0  0  0  0  0
    4.6373    2.1524    8.1426 C   0  0  0  0  0  0  0  0  0  0  0  0
    4.9078    3.6127    8.0698 C   0  0  0  0  0  0  0  0  0  0  0  0
    6.0561    3.8342    7.1486 N   0  0  0  0  0  0  0  0  0  0  0  0
    5.7828    3.4839    5.7513 C   0  0  0  0  0  0  0  0  0  0  0  0
    6.6378    5.1755    7.2040 C   0  0  0  0  0  0  0  0  0  0  0  0
    5.2372    4.0655    9.5117 C   0  0  0  0  0  0  0  0  0  0  0  0
    3.6127    4.3311    7.6296 C   0  0  0  0  0  0  0  0  0  0  0  0
    4.6365   -1.0923    9.1711 O   0  0  0  0  0  0  0  0  0  0  0  0
    3.4917   -0.3689    5.7859 C   0  0  0  0  0  0  0  0  0  0  0  0
    4.5955   -0.6518    4.7762 C   0  0  0  0  0  0  0  0  0  0  0  0
    6.8050   -1.5647    3.4289 O   0  0  0  0  0  0  0  0  0  0  0  0
    4.9409   -4.5792    2.8571 C   0  0  0  0  0  0  0  0  0  0  0  0
    6.3610   -4.2093   -0.1132 O   0  0  0  0  0  0  0  0  0  0  0  0
    6.3091    0.0820   -0.5126 C   0  0  0  0  0  0  0  0  0  0  0  0
    4.8896    0.5905   -0.2143 C   0  0  1  0  0  0  0  0  0  0  0  0
    4.1292    0.9530   -1.5139 C   0  0  0  0  0  0  0  0  0  0  0  0
    2.7932    1.4704   -1.1656 N   0  0  0  0  0  0  0  0  0  0  0  0
    2.0306    0.4958   -0.3522 C   0  0  0  0  0  0  0  0  0  0  0  0
    2.8519    0.1176    0.8954 C   0  0  0  0  0  0  0  0  0  0  0  0
    4.1604   -0.3766    0.5598 O   0  0  0  0  0  0  0  0  0  0  0  0
    8.7636   -1.8138   -1.3300 O   0  0  0  0  0  0  0  0  0  0  0  0
    8.2999   -1.9367   -4.0731 C   0  0  0  0  0  0  0  0  0  0  0  0
    8.1002   -1.0044   -5.2715 C   0  0  0  0  0  0  0  0  0  0  0  0
    6.6455   -0.9998   -5.7563 C   0  0  0  0  0  0  0  0  0  0  0  0
    3.3647   -1.5911   -4.5467 O   0  0  0  0  0  0  0  0  0  0  0  0
    1.6715    3.0386   -4.4110 C   0  0  0  0  0  0  0  0  0  0  0  0
    0.5840    3.7694   -3.9380 C   0  0  0  0  0  0  0  0  0  0  0  0
    0.1981    3.7256   -2.5916 C   0  0  0  0  0  0  0  0  0  0  0  0
    0.9471    2.9341   -1.7119 C   0  0  0  0  0  0  0  0  0  0  0  0
    2.0578    2.1853   -2.1199 C   0  0  0  0  0  0  0  0  0  0  0  0
    2.4089    2.2587   -3.4815 C   0  0  0  0  0  0  0  0  0  0  0  0
    3.5779   -2.6097    4.0258 F   0  0  0  0  0  0  0  0  0  0  0  0
    3.5568    8.4360   -6.3995 H   0  0  0  0  0  0  0  0  0  0  0  0
    2.8607    8.4973   -8.0129 H   0  0  0  0  0  0  0  0  0  0  0  0
    1.7975    8.5868   -6.6078 H   0  0  0  0  0  0  0  0  0  0  0  0
    2.3723    6.3451   -5.9182 H   0  0  0  0  0  0  0  0  0  0  0  0
    5.2999    5.6339   -8.6362 H   0  0  0  0  0  0  0  0  0  0  0  0
    3.6694    5.6430   -9.3102 H   0  0  0  0  0  0  0  0  0  0  0  0
    4.4647    7.1796   -8.8166 H   0  0  0  0  0  0  0  0  0  0  0  0
    0.0511    6.8208  -10.7131 H   0  0  0  0  0  0  0  0  0  0  0  0
   -1.4462    4.9144  -10.1173 H   0  0  0  0  0  0  0  0  0  0  0  0
   -1.0568    3.7288   -7.9687 H   0  0  0  0  0  0  0  0  0  0  0  0
   -1.6119    5.3652   -5.8600 H   0  0  0  0  0  0  0  0  0  0  0  0
   -1.7695    4.9497   -4.1676 H   0  0  0  0  0  0  0  0  0  0  0  0
   -0.1407    6.8140   -3.5761 H   0  0  0  0  0  0  0  0  0  0  0  0
   -0.0680    7.2552   -5.2867 H   0  0  0  0  0  0  0  0  0  0  0  0
   -1.5925    7.4071   -4.4025 H   0  0  0  0  0  0  0  0  0  0  0  0
    2.9763    3.4491   -7.5717 H   0  0  0  0  0  0  0  0  0  0  0  0
    3.7754    2.6617   -6.2442 H   0  0  0  0  0  0  0  0  0  0  0  0
    4.5198    1.2027   -8.2319 H   0  0  0  0  0  0  0  0  0  0  0  0
    3.3506    0.1485   -9.0433 H   0  0  0  0  0  0  0  0  0  0  0  0
    3.3522    1.8868   -9.3663 H   0  0  0  0  0  0  0  0  0  0  0  0
    0.2894    1.4313   -7.2598 H   0  0  0  0  0  0  0  0  0  0  0  0
    0.9326    2.1010   -8.7754 H   0  0  0  0  0  0  0  0  0  0  0  0
    0.8724    0.3582   -8.5290 H   0  0  0  0  0  0  0  0  0  0  0  0
    1.9316    0.3067   -5.5787 H   0  0  0  0  0  0  0  0  0  0  0  0
    2.3702   -0.7684   -6.9219 H   0  0  0  0  0  0  0  0  0  0  0  0
    5.8279    0.2104   -4.1343 H   0  0  0  0  0  0  0  0  0  0  0  0
    5.2032   -1.8666   -2.8793 H   0  0  0  0  0  0  0  0  0  0  0  0
    5.5262   -1.9123   -1.0074 H   0  0  0  0  0  0  0  0  0  0  0  0
    7.0753   -1.5065    1.3867 H   0  0  0  0  0  0  0  0  0  0  0  0
    8.0657   -3.2278    2.4634 H   0  0  0  0  0  0  0  0  0  0  0  0
    7.1543   -6.0427    1.6902 H   0  0  0  0  0  0  0  0  0  0  0  0
    7.3041   -5.8868    4.1742 H   0  0  0  0  0  0  0  0  0  0  0  0
    8.6649   -6.7986    3.5251 H   0  0  0  0  0  0  0  0  0  0  0  0
    8.8981   -5.1207    4.0432 H   0  0  0  0  0  0  0  0  0  0  0  0
    9.5877   -6.3680    1.3007 H   0  0  0  0  0  0  0  0  0  0  0  0
    8.9290   -5.1252    0.2361 H   0  0  0  0  0  0  0  0  0  0  0  0
    9.8845   -4.6574    1.6546 H   0  0  0  0  0  0  0  0  0  0  0  0
    4.9762   -3.9744    5.7815 H   0  0  0  0  0  0  0  0  0  0  0  0
    5.9403   -2.6075    6.3342 H   0  0  0  0  0  0  0  0  0  0  0  0
    2.8864   -2.8836    6.5376 H   0  0  0  0  0  0  0  0  0  0  0  0
    4.0459   -2.9992    7.8634 H   0  0  0  0  0  0  0  0  0  0  0  0
    5.3866    2.4681    5.6497 H   0  0  0  0  0  0  0  0  0  0  0  0
    5.0835    4.1784    5.2738 H   0  0  0  0  0  0  0  0  0  0  0  0
    6.7127    3.4962    5.1705 H   0  0  0  0  0  0  0  0  0  0  0  0
    7.0603    5.3911    8.1901 H   0  0  0  0  0  0  0  0  0  0  0  0
    7.4796    5.2606    6.5067 H   0  0  0  0  0  0  0  0  0  0  0  0
    5.9154    5.9573    6.9496 H   0  0  0  0  0  0  0  0  0  0  0  0
    4.4404    3.7746   10.2095 H   0  0  0  0  0  0  0  0  0  0  0  0
    6.1633    3.6033    9.8754 H   0  0  0  0  0  0  0  0  0  0  0  0
    5.3419    5.1535    9.5884 H   0  0  0  0  0  0  0  0  0  0  0  0
    2.8060    4.1611    8.3550 H   0  0  0  0  0  0  0  0  0  0  0  0
    3.7566    5.4135    7.5516 H   0  0  0  0  0  0  0  0  0  0  0  0
    3.2426    3.9648    6.6652 H   0  0  0  0  0  0  0  0  0  0  0  0
    2.5260   -0.7271    5.4133 H   0  0  0  0  0  0  0  0  0  0  0  0
    3.3919    0.7068    5.9449 H   0  0  0  0  0  0  0  0  0  0  0  0
    5.5342   -0.2068    5.1324 H   0  0  0  0  0  0  0  0  0  0  0  0
    4.3444   -0.1693    3.8240 H   0  0  0  0  0  0  0  0  0  0  0  0
    4.3686   -4.6953    3.7784 H   0  0  0  0  0  0  0  0  0  0  0  0
    4.3037   -4.1221    2.0946 H   0  0  0  0  0  0  0  0  0  0  0  0
    5.2383   -5.5784    2.5374 H   0  0  0  0  0  0  0  0  0  0  0  0
    6.9528    0.4020    0.3195 H   0  0  0  0  0  0  0  0  0  0  0  0
    6.6990    0.6175   -1.3884 H   0  0  0  0  0  0  0  0  0  0  0  0
    4.9840    1.5017    0.3919 H   0  0  0  0  0  0  0  0  0  0  0  0
    4.7090    1.7087   -2.0564 H   0  0  0  0  0  0  0  0  0  0  0  0
    4.0185    0.0627   -2.1438 H   0  0  0  0  0  0  0  0  0  0  0  0
    1.0639    0.8862   -0.0183 H   0  0  0  0  0  0  0  0  0  0  0  0
    1.8429   -0.4018   -0.9551 H   0  0  0  0  0  0  0  0  0  0  0  0
    2.9635    0.9798    1.5641 H   0  0  0  0  0  0  0  0  0  0  0  0
    2.3351   -0.6688    1.4531 H   0  0  0  0  0  0  0  0  0  0  0  0
    9.2980   -1.7832   -3.6499 H   0  0  0  0  0  0  0  0  0  0  0  0
    8.2300   -2.9862   -4.3826 H   0  0  0  0  0  0  0  0  0  0  0  0
    8.3728    0.0170   -4.9768 H   0  0  0  0  0  0  0  0  0  0  0  0
    8.7702   -1.2931   -6.0890 H   0  0  0  0  0  0  0  0  0  0  0  0
    6.4216   -1.9533   -6.2553 H   0  0  0  0  0  0  0  0  0  0  0  0
    6.5188   -0.2167   -6.5139 H   0  0  0  0  0  0  0  0  0  0  0  0
   -0.6374    4.3075   -2.2164 H   0  0  0  0  0  0  0  0  0  0  0  0
    0.6658    2.9539   -0.6620 H   0  0  0  0  0  0  0  0  0  0  0  0
    3.2663    1.7173   -3.8569 H   0  0  0  0  0  0  0  0  0  0  0  0
  1  2  1  0
  2  3  1  0
  2  5  1  0
  3  4  1  0
  5  6  2  0
  5 10  1  0
  6  7  1  0
  7  8  2  0
  8  9  1  0
  9 10  2  0
 10 11  1  0
 11 12  1  0
 11 15  2  0
 12 13  1  0
 12 68  1  0
 13 14  1  0
 15 16  1  0
 15 67  1  0
 16 17  1  0
 17 18  1  0
 17 19  1  0
 17 20  1  0
 20 21  1  0
 21 22  1  0
 22 23  1  0
 22 66  2  0
 23 24  1  0
 23 65  1  0
 24 25  1  0
 25 26  1  0
 25 63  1  0
 26 27  1  0
 26 62  2  0
 27 28  1  0
 27 55  1  0
 28 29  1  0
 29 30  1  0
 29 54  2  0
 30 31  1  0
 30 34  1  0
 31 32  1  0
 31 33  1  0
 34 35  1  0
 34 53  1  0
 35 36  1  0
 35 52  2  0
 36 37  1  0
 36 51  1  0
 36 73  1  0
 37 38  1  0
 38 39  1  0
 39 40  1  0
 39 50  1  0
 40 41  1  0
 40 49  2  0
 42 43  1  0
 43 44  1  0
 43 47  1  0
 43 48  1  0
 44 45  1  0
 44 46  1  0
 50 51  1  0
 55 56  1  0
 56 57  1  0
 56 61  1  0
 57 58  1  0
 58 59  1  0
 58 71  1  0
 59 60  1  0
 60 61  1  0
 63 64  1  0
 64 65  1  0
 67 68  2  0
 67 72  1  0
 68 69  1  0
 69 70  2  0
 70 71  1  0
 71 72  2  0
  1 74  1  0
  1 75  1  0
  1 76  1  0
  2 77  1  1
  4 78  1  0
  4 79  1  0
  4 80  1  0
  7 81  1  0
  8 82  1  0
  9 83  1  0
 13 84  1  0
 13 85  1  0
 14 86  1  0
 14 87  1  0
 14 88  1  0
 16 89  1  0
 16 90  1  0
 18 91  1  0
 18 92  1  0
 18 93  1  0
 19 94  1  0
 19 95  1  0
 19 96  1  0
 20 97  1  0
 20 98  1  0
 23 99  1  1
 24100  1  0
 27101  1  6
 28102  1  0
 30103  1  1
 31104  1  0
 32105  1  0
 32106  1  0
 32107  1  0
 33108  1  0
 33109  1  0
 33110  1  0
 37111  1  0
 37112  1  0
 38113  1  0
 38114  1  0
 45115  1  0
 45116  1  0
 45117  1  0
 46118  1  0
 46119  1  0
 46120  1  0
 47121  1  0
 47122  1  0
 47123  1  0
 48124  1  0
 48125  1  0
 48126  1  0
 50127  1  0
 50128  1  0
 51129  1  0
 51130  1  0
 53131  1  0
 53132  1  0
 53133  1  0
 55134  1  0
 55135  1  0
 56136  1  1
 57137  1  0
 57138  1  0
 59139  1  0
 59140  1  0
 60141  1  0
 60142  1  0
 63143  1  0
 63144  1  0
 64145  1  0
 64146  1  0
 65147  1  0
 65148  1  0
 69149  1  0
 70150  1  0
 72151  1  0
 41 42  3  0
M  END
$$$$
