 energy: -221.283826544280 gnorm: 0.000360306514 xtb: 6.7.1 (edcfbbe)
          08172521283D

151157  0     0  0            999 V2000
    2.3882    7.3604   -7.5091 C   0  0  0  0  0  0  0  0  0  0  0  0
    2.5009    5.8407   -7.3828 C   0  0  0  0  0  0  0  0  0  0  0  0
    3.7049    5.3165   -7.9286 O   0  0  0  0  0  0  0  0  0  0  0  0
    3.9915    5.6567   -9.2673 C   0  0  0  0  0  0  0  0  0  0  0  0
    1.2911    5.1602   -7.9959 C   0  0  0  0  0  0  0  0  0  0  0  0
    0.9497    5.5686   -9.2107 N   0  0  0  0  0  0  0  0  0  0  0  0
   -0.0842    5.0196   -9.8209 C   0  0  0  0  0  0  0  0  0  0  0  0
   -0.8618    4.0301   -9.2423 C   0  0  0  0  0  0  0  0  0  0  0  0
   -0.5184    3.5980   -7.9741 C   0  0  0  0  0  0  0  0  0  0  0  0
    0.5857    4.1512   -7.3248 C   0  0  0  0  0  0  0  0  0  0  0  0
    0.9318    3.6905   -5.9762 C   0  0  0  0  0  0  0  0  0  0  0  0
    0.0611    3.9077   -4.9282 N   0  0  0  0  0  0  0  0  0  0  0  0
   -1.0905    4.7697   -4.9478 C   0  0  0  0  0  0  0  0  0  0  0  0
   -0.7180    6.2091   -4.5933 C   0  0  0  0  0  0  0  0  0  0  0  0
    2.0255    2.9744   -5.5459 C   0  0  0  0  0  0  0  0  0  0  0  0
    3.1651    2.5047   -6.3906 C   0  0  0  0  0  0  0  0  0  0  0  0
    3.0022    1.0925   -7.0016 C   0  0  0  0  0  0  0  0  0  0  0  0
    4.0450    0.9175   -8.1082 C   0  0  0  0  0  0  0  0  0  0  0  0
    1.6049    0.8948   -7.5872 C   0  0  0  0  0  0  0  0  0  0  0  0
    3.2238    0.0207   -5.9283 C   0  0  0  0  0  0  0  0  0  0  0  0
    4.5784    0.0810   -5.4723 O   0  0  0  0  0  0  0  0  0  0  0  0
    4.8710   -0.5583   -4.3523 C   0  0  0  0  0  0  0  0  0  0  0  0
    6.3165   -0.3363   -3.9309 C   0  0  0  0  0  0  0  0  0  0  0  0
    6.8425   -1.5081   -3.2492 N   0  0  0  0  0  0  0  0  0  0  0  0
    8.0017   -1.1504   -2.5554 N   0  0  0  0  0  0  0  0  0  0  0  0
    8.0390   -0.5915   -1.3233 C   0  0  0  0  0  0  0  0  0  0  0  0
    6.7227   -0.6300   -0.5209 C   0  0  0  0  0  0  0  0  0  0  0  0
    6.7841   -1.7170    0.4294 N   0  0  0  0  0  0  0  0  0  0  0  0
    6.3253   -2.9385    0.1174 C   0  0  0  0  0  0  0  0  0  0  0  0
    6.3178   -3.8833    1.3222 C   0  0  0  0  0  0  0  0  0  0  0  0
    6.2292   -5.3622    0.9298 C   0  0  0  0  0  0  0  0  0  0  0  0
    5.9903   -6.2305    2.1615 C   0  0  0  0  0  0  0  0  0  0  0  0
    7.5316   -5.7580    0.2363 C   0  0  0  0  0  0  0  0  0  0  0  0
    5.2182   -3.4242    2.1741 N   0  0  0  0  0  0  0  0  0  0  0  0
    5.5591   -2.6628    3.2272 C   0  0  0  0  0  0  0  0  0  0  0  0
    4.5173   -2.1147    4.2107 C   0  0  0  0  0  0  0  0  0  0  0  0
    4.6495   -2.8787    5.5345 C   0  0  0  0  0  0  0  0  0  0  0  0
    3.7606   -2.2439    6.6054 C   0  0  0  0  0  0  0  0  0  0  0  0
    4.0494   -0.8361    6.7374 N   0  0  0  0  0  0  0  0  0  0  0  0
    4.5638   -0.3509    7.8944 C   0  0  0  0  0  0  0  0  0  0  0  0
    4.8584    1.0630    7.8898 C   0  0  0  0  0  0  0  0  0  0  0  0
    5.1680    2.2156    8.0466 C   0  0  0  0  0  0  0  0  0  0  0  0
    5.4304    3.6354    8.2622 C   0  0  0  0  0  0  0  0  0  0  0  0
    6.2584    4.1600    7.1703 N   0  0  0  0  0  0  0  0  0  0  0  0
    5.8405    3.7688    5.8429 C   0  0  0  0  0  0  0  0  0  0  0  0
    6.5079    5.5834    7.2292 C   0  0  0  0  0  0  0  0  0  0  0  0
    6.2052    3.7377    9.5877 C   0  0  0  0  0  0  0  0  0  0  0  0
    4.0546    4.3231    8.4050 C   0  0  0  0  0  0  0  0  0  0  0  0
    4.7411   -1.0356    8.8853 O   0  0  0  0  0  0  0  0  0  0  0  0
    3.8757   -0.0782    5.5250 C   0  0  0  0  0  0  0  0  0  0  0  0
    4.7922   -0.6225    4.4287 C   0  0  0  0  0  0  0  0  0  0  0  0
    6.7299   -2.4143    3.4941 O   0  0  0  0  0  0  0  0  0  0  0  0
    3.8853   -3.5448    1.6192 C   0  0  0  0  0  0  0  0  0  0  0  0
    5.8856   -3.2301   -0.9803 O   0  0  0  0  0  0  0  0  0  0  0  0
    6.4820    0.7150    0.1690 C   0  0  0  0  0  0  0  0  0  0  0  0
    4.9992    1.0654    0.3268 C   0  0  0  0  0  0  0  0  0  0  0  0
    4.2888    1.2607   -1.0231 C   0  0  0  0  0  0  0  0  0  0  0  0
    2.9026    1.6012   -0.7802 N   0  0  0  0  0  0  0  0  0  0  0  0
    2.2675    0.5321   -0.0283 C   0  0  0  0  0  0  0  0  0  0  0  0
    3.0035    0.3768    1.2996 C   0  0  0  0  0  0  0  0  0  0  0  0
    4.3638    0.0609    1.0964 O   0  0  0  0  0  0  0  0  0  0  0  0
    9.0644   -0.1478   -0.8410 O   0  0  0  0  0  0  0  0  0  0  0  0
    9.0780   -0.9246   -3.5032 C   0  0  0  0  0  0  0  0  0  0  0  0
    8.6858    0.2237   -4.4415 C   0  0  0  0  0  0  0  0  0  0  0  0
    7.3046   -0.0228   -5.0579 C   0  0  0  0  0  0  0  0  0  0  0  0
    4.0835   -1.1815   -3.6869 O   0  0  0  0  0  0  0  0  0  0  0  0
    1.8466    2.7731   -4.1432 C   0  0  0  0  0  0  0  0  0  0  0  0
    0.6179    3.3792   -3.7952 C   0  0  0  0  0  0  0  0  0  0  0  0
    0.1604    3.3728   -2.4827 C   0  0  0  0  0  0  0  0  0  0  0  0
    0.9367    2.7579   -1.5309 C   0  0  0  0  0  0  0  0  0  0  0  0
    2.1645    2.1445   -1.8486 C   0  0  0  0  0  0  0  0  0  0  0  0
    2.6194    2.1579   -3.1556 C   0  0  0  0  0  0  0  0  0  0  0  0
    3.2027   -2.2426    3.7757 F   0  0  0  0  0  0  0  0  0  0  0  0
    3.3081    7.8269   -7.1655 H   0  0  0  0  0  0  0  0  0  0  0  0
    2.1980    7.6383   -8.5417 H   0  0  0  0  0  0  0  0  0  0  0  0
    1.5635    7.7167   -6.8970 H   0  0  0  0  0  0  0  0  0  0  0  0
    2.5669    5.5599   -6.3250 H   0  0  0  0  0  0  0  0  0  0  0  0
    4.7935    4.9872   -9.5761 H   0  0  0  0  0  0  0  0  0  0  0  0
    3.1218    5.5130   -9.9142 H   0  0  0  0  0  0  0  0  0  0  0  0
    4.3369    6.6918   -9.3527 H   0  0  0  0  0  0  0  0  0  0  0  0
   -0.2951    5.3992  -10.8121 H   0  0  0  0  0  0  0  0  0  0  0  0
   -1.7064    3.6104   -9.7659 H   0  0  0  0  0  0  0  0  0  0  0  0
   -1.0895    2.8202   -7.4858 H   0  0  0  0  0  0  0  0  0  0  0  0
   -1.5405    4.7421   -5.9433 H   0  0  0  0  0  0  0  0  0  0  0  0
   -1.8196    4.3837   -4.2301 H   0  0  0  0  0  0  0  0  0  0  0  0
   -0.2491    6.2458   -3.6130 H   0  0  0  0  0  0  0  0  0  0  0  0
   -0.0181    6.6036   -5.3266 H   0  0  0  0  0  0  0  0  0  0  0  0
   -1.6057    6.8357   -4.5838 H   0  0  0  0  0  0  0  0  0  0  0  0
    3.3088    3.2130   -7.2067 H   0  0  0  0  0  0  0  0  0  0  0  0
    4.0766    2.5064   -5.7899 H   0  0  0  0  0  0  0  0  0  0  0  0
    5.0450    1.0768   -7.7152 H   0  0  0  0  0  0  0  0  0  0  0  0
    3.9943   -0.0859   -8.5256 H   0  0  0  0  0  0  0  0  0  0  0  0
    3.8669    1.6339   -8.9063 H   0  0  0  0  0  0  0  0  0  0  0  0
    0.8487    0.9573   -6.8087 H   0  0  0  0  0  0  0  0  0  0  0  0
    1.4031    1.6594   -8.3326 H   0  0  0  0  0  0  0  0  0  0  0  0
    1.5282   -0.0799   -8.0641 H   0  0  0  0  0  0  0  0  0  0  0  0
    2.5512    0.1694   -5.0775 H   0  0  0  0  0  0  0  0  0  0  0  0
    3.0436   -0.9797   -6.3370 H   0  0  0  0  0  0  0  0  0  0  0  0
    6.2791    0.5412   -3.2498 H   0  0  0  0  0  0  0  0  0  0  0  0
    6.1796   -2.0313   -2.6785 H   0  0  0  0  0  0  0  0  0  0  0  0
    5.8832   -0.8648   -1.1783 H   0  0  0  0  0  0  0  0  0  0  0  0
    7.1709   -1.5370    1.3447 H   0  0  0  0  0  0  0  0  0  0  0  0
    7.2333   -3.7316    1.9036 H   0  0  0  0  0  0  0  0  0  0  0  0
    5.4135   -5.5042    0.2151 H   0  0  0  0  0  0  0  0  0  0  0  0
    5.0339   -6.0027    2.6246 H   0  0  0  0  0  0  0  0  0  0  0  0
    5.9941   -7.2816    1.8838 H   0  0  0  0  0  0  0  0  0  0  0  0
    6.7757   -6.0652    2.8960 H   0  0  0  0  0  0  0  0  0  0  0  0
    7.4896   -6.7997   -0.0719 H   0  0  0  0  0  0  0  0  0  0  0  0
    7.6910   -5.1453   -0.6469 H   0  0  0  0  0  0  0  0  0  0  0  0
    8.3779   -5.6307    0.9083 H   0  0  0  0  0  0  0  0  0  0  0  0
    4.3595   -3.9203    5.3855 H   0  0  0  0  0  0  0  0  0  0  0  0
    5.6958   -2.8444    5.8390 H   0  0  0  0  0  0  0  0  0  0  0  0
    2.7070   -2.3679    6.3281 H   0  0  0  0  0  0  0  0  0  0  0  0
    3.9368   -2.7131    7.5753 H   0  0  0  0  0  0  0  0  0  0  0  0
    5.7797    2.6840    5.7848 H   0  0  0  0  0  0  0  0  0  0  0  0
    4.8717    4.1984    5.5399 H   0  0  0  0  0  0  0  0  0  0  0  0
    6.5958    4.1079    5.1341 H   0  0  0  0  0  0  0  0  0  0  0  0
    6.8292    5.8702    8.2264 H   0  0  0  0  0  0  0  0  0  0  0  0
    7.3174    5.8132    6.5354 H   0  0  0  0  0  0  0  0  0  0  0  0
    5.6349    6.1915    6.9454 H   0  0  0  0  0  0  0  0  0  0  0  0
    5.7449    3.0904   10.3301 H   0  0  0  0  0  0  0  0  0  0  0  0
    7.2317    3.4174    9.4321 H   0  0  0  0  0  0  0  0  0  0  0  0
    6.2008    4.7547    9.9710 H   0  0  0  0  0  0  0  0  0  0  0  0
    3.4782    3.8269    9.1816 H   0  0  0  0  0  0  0  0  0  0  0  0
    4.1806    5.3679    8.6784 H   0  0  0  0  0  0  0  0  0  0  0  0
    3.4967    4.2634    7.4728 H   0  0  0  0  0  0  0  0  0  0  0  0
    2.8311   -0.1664    5.2000 H   0  0  0  0  0  0  0  0  0  0  0  0
    4.0955    0.9725    5.7200 H   0  0  0  0  0  0  0  0  0  0  0  0
    5.8380   -0.5144    4.7168 H   0  0  0  0  0  0  0  0  0  0  0  0
    4.6287   -0.0904    3.4912 H   0  0  0  0  0  0  0  0  0  0  0  0
    3.2263   -4.1023    2.2850 H   0  0  0  0  0  0  0  0  0  0  0  0
    3.4558   -2.5615    1.4295 H   0  0  0  0  0  0  0  0  0  0  0  0
    3.9524   -4.0680    0.6700 H   0  0  0  0  0  0  0  0  0  0  0  0
    6.9503    0.6940    1.1542 H   0  0  0  0  0  0  0  0  0  0  0  0
    6.9631    1.5085   -0.4052 H   0  0  0  0  0  0  0  0  0  0  0  0
    4.9238    2.0221    0.8751 H   0  0  0  0  0  0  0  0  0  0  0  0
    4.7697    2.0861   -1.5525 H   0  0  0  0  0  0  0  0  0  0  0  0
    4.3620    0.3406   -1.6232 H   0  0  0  0  0  0  0  0  0  0  0  0
    1.2207    0.7707    0.1538 H   0  0  0  0  0  0  0  0  0  0  0  0
    2.3232   -0.4195   -0.5838 H   0  0  0  0  0  0  0  0  0  0  0  0
    2.9243    1.3175    1.8673 H   0  0  0  0  0  0  0  0  0  0  0  0
    2.5785   -0.4381    1.8885 H   0  0  0  0  0  0  0  0  0  0  0  0
    9.9815   -0.6842   -2.9433 H   0  0  0  0  0  0  0  0  0  0  0  0
    9.2185   -1.8484   -4.0677 H   0  0  0  0  0  0  0  0  0  0  0  0
    8.6657    1.1529   -3.8667 H   0  0  0  0  0  0  0  0  0  0  0  0
    9.4348    0.3265   -5.2266 H   0  0  0  0  0  0  0  0  0  0  0  0
    7.3448   -0.8811   -5.7291 H   0  0  0  0  0  0  0  0  0  0  0  0
    6.9788    0.8503   -5.6225 H   0  0  0  0  0  0  0  0  0  0  0  0
   -0.7702    3.8453   -2.2057 H   0  0  0  0  0  0  0  0  0  0  0  0
    0.6135    2.7646   -0.5012 H   0  0  0  0  0  0  0  0  0  0  0  0
    3.5602    1.7059   -3.4244 H   0  0  0  0  0  0  0  0  0  0  0  0
  1  2  1  0  0  0  0
  2  3  1  0  0  0  0
  2  5  1  0  0  0  0
  3  4  1  0  0  0  0
  5  6  2  0  0  0  0
  5 10  1  0  0  0  0
  6  7  1  0  0  0  0
  7  8  2  0  0  0  0
  8  9  1  0  0  0  0
  9 10  2  0  0  0  0
 10 11  1  0  0  0  0
 11 12  1  0  0  0  0
 11 15  2  0  0  0  0
 12 13  1  0  0  0  0
 12 68  1  0  0  0  0
 13 14  1  0  0  0  0
 15 16  1  0  0  0  0
 15 67  1  0  0  0  0
 16 17  1  0  0  0  0
 17 18  1  0  0  0  0
 17 19  1  0  0  0  0
 17 20  1  0  0  0  0
 20 21  1  0  0  0  0
 21 22  1  0  0  0  0
 22 23  1  0  0  0  0
 22 66  2  0  0  0  0
 23 24  1  0  0  0  0
 23 65  1  0  0  0  0
 24 25  1  0  0  0  0
 25 26  1  0  0  0  0
 25 63  1  0  0  0  0
 26 27  1  0  0  0  0
 26 62  2  0  0  0  0
 27 28  1  0  0  0  0
 27 55  1  0  0  0  0
 28 29  1  0  0  0  0
 29 30  1  0  0  0  0
 29 54  2  0  0  0  0
 30 31  1  0  0  0  0
 30 34  1  0  0  0  0
 31 32  1  0  0  0  0
 31 33  1  0  0  0  0
 34 35  1  0  0  0  0
 34 53  1  0  0  0  0
 35 36  1  0  0  0  0
 35 52  2  0  0  0  0
 36 37  1  0  0  0  0
 36 51  1  0  0  0  0
 36 73  1  0  0  0  0
 37 38  1  0  0  0  0
 38 39  1  0  0  0  0
 39 40  1  0  0  0  0
 39 50  1  0  0  0  0
 40 41  1  0  0  0  0
 40 49  2  0  0  0  0
 42 43  1  0  0  0  0
 43 44  1  0  0  0  0
 43 47  1  0  0  0  0
 43 48  1  0  0  0  0
 44 45  1  0  0  0  0
 44 46  1  0  0  0  0
 50 51  1  0  0  0  0
 55 56  1  0  0  0  0
 56 57  1  0  0  0  0
 56 61  1  0  0  0  0
 57 58  1  0  0  0  0
 58 59  1  0  0  0  0
 58 71  1  0  0  0  0
 59 60  1  0  0  0  0
 60 61  1  0  0  0  0
 63 64  1  0  0  0  0
 64 65  1  0  0  0  0
 67 68  2  0  0  0  0
 67 72  1  0  0  0  0
 68 69  1  0  0  0  0
 69 70  2  0  0  0  0
 70 71  1  0  0  0  0
 71 72  2  0  0  0  0
  1 74  1  0  0  0  0
  1 75  1  0  0  0  0
  1 76  1  0  0  0  0
  2 77  1  0  0  0  0
  4 78  1  0  0  0  0
  4 79  1  0  0  0  0
  4 80  1  0  0  0  0
  7 81  1  0  0  0  0
  8 82  1  0  0  0  0
  9 83  1  0  0  0  0
 13 84  1  0  0  0  0
 13 85  1  0  0  0  0
 14 86  1  0  0  0  0
 14 87  1  0  0  0  0
 14 88  1  0  0  0  0
 16 89  1  0  0  0  0
 16 90  1  0  0  0  0
 18 91  1  0  0  0  0
 18 92  1  0  0  0  0
 18 93  1  0  0  0  0
 19 94  1  0  0  0  0
 19 95  1  0  0  0  0
 19 96  1  0  0  0  0
 20 97  1  0  0  0  0
 20 98  1  0  0  0  0
 23 99  1  0  0  0  0
 24100  1  0  0  0  0
 27101  1  0  0  0  0
 28102  1  0  0  0  0
 30103  1  0  0  0  0
 31104  1  0  0  0  0
 32105  1  0  0  0  0
 32106  1  0  0  0  0
 32107  1  0  0  0  0
 33108  1  0  0  0  0
 33109  1  0  0  0  0
 33110  1  0  0  0  0
 37111  1  0  0  0  0
 37112  1  0  0  0  0
 38113  1  0  0  0  0
 38114  1  0  0  0  0
 45115  1  0  0  0  0
 45116  1  0  0  0  0
 45117  1  0  0  0  0
 46118  1  0  0  0  0
 46119  1  0  0  0  0
 46120  1  0  0  0  0
 47121  1  0  0  0  0
 47122  1  0  0  0  0
 47123  1  0  0  0  0
 48124  1  0  0  0  0
 48125  1  0  0  0  0
 48126  1  0  0  0  0
 50127  1  0  0  0  0
 50128  1  0  0  0  0
 51129  1  0  0  0  0
 51130  1  0  0  0  0
 53131  1  0  0  0  0
 53132  1  0  0  0  0
 53133  1  0  0  0  0
 55134  1  0  0  0  0
 55135  1  0  0  0  0
 56136  1  0  0  0  0
 57137  1  0  0  0  0
 57138  1  0  0  0  0
 59139  1  0  0  0  0
 59140  1  0  0  0  0
 60141  1  0  0  0  0
 60142  1  0  0  0  0
 63143  1  0  0  0  0
 63144  1  0  0  0  0
 64145  1  0  0  0  0
 64146  1  0  0  0  0
 65147  1  0  0  0  0
 65148  1  0  0  0  0
 69149  1  0  0  0  0
 70150  1  0  0  0  0
 72151  1  0  0  0  0
 41 42  3  0  0  0  0
M  END
$$$$
