 energy: -221.266405218631 gnorm: 0.000575835099 xtb: 6.7.1 (edcfbbe)
          08182522133D

151157  0     0  0            999 V2000
    0.3724   14.3262  -13.2568 C   0  0  0  0  0  0  0  0  0  0  0  0
   -0.1480   13.7019  -11.9643 C   0  0  0  0  0  0  0  0  0  0  0  0
   -1.1869   14.4742  -11.3795 O   0  0  0  0  0  0  0  0  0  0  0  0
   -2.4649   14.2181  -11.9008 C   0  0  0  0  0  0  0  0  0  0  0  0
    0.9502   13.5746  -10.9257 C   0  0  0  0  0  0  0  0  0  0  0  0
    2.1012   14.1731  -11.1780 N   0  0  0  0  0  0  0  0  0  0  0  0
    3.0882   14.0715  -10.3065 C   0  0  0  0  0  0  0  0  0  0  0  0
    2.9878   13.3508   -9.1279 C   0  0  0  0  0  0  0  0  0  0  0  0
    1.7858   12.7189   -8.8551 C   0  0  0  0  0  0  0  0  0  0  0  0
    0.7317   12.8311   -9.7568 C   0  0  0  0  0  0  0  0  0  0  0  0
   -0.5465   12.1446   -9.5206 C   0  0  0  0  0  0  0  0  0  0  0  0
   -0.7104   10.8571   -9.9884 N   0  0  0  0  0  0  0  0  0  0  0  0
    0.3047   10.0421  -10.5999 C   0  0  0  0  0  0  0  0  0  0  0  0
    0.9992    9.1418   -9.5788 C   0  0  0  0  0  0  0  0  0  0  0  0
   -1.7014   12.5829   -8.9201 C   0  0  0  0  0  0  0  0  0  0  0  0
   -2.0206   13.9157   -8.3200 C   0  0  0  0  0  0  0  0  0  0  0  0
   -1.3097   14.3088   -6.9942 C   0  0  0  0  0  0  0  0  0  0  0  0
   -2.2835   15.1228   -6.1358 C   0  0  0  0  0  0  0  0  0  0  0  0
   -0.0969   15.1929   -7.3052 C   0  0  0  0  0  0  0  0  0  0  0  0
   -0.8146   13.0873   -6.1940 C   0  0  0  0  0  0  0  0  0  0  0  0
   -1.7569   12.6398   -5.2138 O   0  0  0  0  0  0  0  0  0  0  0  0
   -2.0139   11.3447   -5.1311 C   0  0  0  0  0  0  0  0  0  0  0  0
   -2.9133   11.0432   -3.9350 C   0  0  0  0  0  0  0  0  0  0  0  0
   -2.8732    9.6096   -3.6890 N   0  0  0  0  0  0  0  0  0  0  0  0
   -3.7734    9.2165   -2.6925 N   0  0  0  0  0  0  0  0  0  0  0  0
   -4.9513    8.5820   -2.8498 C   0  0  0  0  0  0  0  0  0  0  0  0
   -5.4057    8.3392   -4.2926 C   0  0  0  0  0  0  0  0  0  0  0  0
   -6.2999    7.2114   -4.3466 N   0  0  0  0  0  0  0  0  0  0  0  0
   -6.1236    6.1960   -5.2032 C   0  0  0  0  0  0  0  0  0  0  0  0
   -7.3243    5.2497   -5.3121 C   0  0  0  0  0  0  0  0  0  0  0  0
   -6.9580    3.7971   -4.9947 C   0  0  0  0  0  0  0  0  0  0  0  0
   -8.2004    2.9103   -5.0342 C   0  0  0  0  0  0  0  0  0  0  0  0
   -6.3199    3.7485   -3.6065 C   0  0  0  0  0  0  0  0  0  0  0  0
   -7.8627    5.4642   -6.6618 N   0  0  0  0  0  0  0  0  0  0  0  0
   -8.7098    6.5032   -6.7817 C   0  0  0  0  0  0  0  0  0  0  0  0
   -9.3776    6.7875   -8.1438 C   0  0  0  0  0  0  0  0  0  0  0  0
  -10.1733    8.0931   -8.0696 C   0  0  0  0  0  0  0  0  0  0  0  0
  -10.9111    8.3321   -9.3880 C   0  0  0  0  0  0  0  0  0  0  0  0
  -11.7561    7.2081   -9.6973 N   0  0  0  0  0  0  0  0  0  0  0  0
  -13.1136    7.2261   -9.6955 C   0  0  0  0  0  0  0  0  0  0  0  0
  -13.7044    8.5242   -9.4776 C   0  0  0  0  0  0  0  0  0  0  0  0
  -14.3791    9.5072   -9.3042 C   0  0  0  0  0  0  0  0  0  0  0  0
  -15.0287   10.7965   -9.0717 C   0  0  0  0  0  0  0  0  0  0  0  0
  -14.0420   11.8615   -8.8217 N   0  0  0  0  0  0  0  0  0  0  0  0
  -13.2507   11.6492   -7.6245 C   0  0  0  0  0  0  0  0  0  0  0  0
  -13.1860   12.1385   -9.9594 C   0  0  0  0  0  0  0  0  0  0  0  0
  -15.9682   10.6582   -7.8628 C   0  0  0  0  0  0  0  0  0  0  0  0
  -15.8780   11.1436  -10.3049 C   0  0  0  0  0  0  0  0  0  0  0  0
  -13.7928    6.2328   -9.8811 O   0  0  0  0  0  0  0  0  0  0  0  0
  -11.0491    5.9582   -9.8288 C   0  0  0  0  0  0  0  0  0  0  0  0
  -10.3013    5.6286   -8.5338 C   0  0  0  0  0  0  0  0  0  0  0  0
   -9.0484    7.1744   -5.8152 O   0  0  0  0  0  0  0  0  0  0  0  0
   -7.1663    4.7900   -7.7371 C   0  0  0  0  0  0  0  0  0  0  0  0
   -5.1357    6.0759   -5.9059 O   0  0  0  0  0  0  0  0  0  0  0  0
   -6.1242    9.6130   -4.7834 C   0  0  0  0  0  0  0  0  0  0  0  0
   -5.6219   10.0940   -6.1485 C   0  0  0  0  0  0  0  0  0  0  0  0
   -6.0787    9.1890   -7.3072 C   0  0  0  0  0  0  0  0  0  0  0  0
   -5.9683    9.9084   -8.5601 N   0  0  0  0  0  0  0  0  0  0  0  0
   -6.8947   11.0276   -8.5861 C   0  0  0  0  0  0  0  0  0  0  0  0
   -7.1558   11.5936   -7.1744 C   0  0  0  0  0  0  0  0  0  0  0  0
   -6.0190   11.4475   -6.3534 O   0  0  0  0  0  0  0  0  0  0  0  0
   -5.6385    8.2372   -1.9040 O   0  0  0  0  0  0  0  0  0  0  0  0
   -3.3586    9.7437   -1.4069 C   0  0  0  0  0  0  0  0  0  0  0  0
   -3.3303   11.2728   -1.4855 C   0  0  0  0  0  0  0  0  0  0  0  0
   -2.4408   11.7249   -2.6453 C   0  0  0  0  0  0  0  0  0  0  0  0
   -1.6058   10.4985   -5.8836 O   0  0  0  0  0  0  0  0  0  0  0  0
   -2.6375   11.5079   -9.0313 C   0  0  0  0  0  0  0  0  0  0  0  0
   -1.9772   10.4432   -9.6846 C   0  0  0  0  0  0  0  0  0  0  0  0
   -2.6190    9.2351   -9.9320 C   0  0  0  0  0  0  0  0  0  0  0  0
   -3.9309    9.1136   -9.5385 C   0  0  0  0  0  0  0  0  0  0  0  0
   -4.6126   10.1688   -8.9116 C   0  0  0  0  0  0  0  0  0  0  0  0
   -3.9705   11.3635   -8.6507 C   0  0  0  0  0  0  0  0  0  0  0  0
   -8.4162    6.9594   -9.1403 F   0  0  0  0  0  0  0  0  0  0  0  0
   -0.4230   14.3866  -13.9954 H   0  0  0  0  0  0  0  0  0  0  0  0
    0.7471   15.3232  -13.0485 H   0  0  0  0  0  0  0  0  0  0  0  0
    1.1827   13.7238  -13.6551 H   0  0  0  0  0  0  0  0  0  0  0  0
   -0.5364   12.6896  -12.1743 H   0  0  0  0  0  0  0  0  0  0  0  0
   -2.7555   13.1718  -11.7415 H   0  0  0  0  0  0  0  0  0  0  0  0
   -3.1512   14.8657  -11.3584 H   0  0  0  0  0  0  0  0  0  0  0  0
   -2.5274   14.4472  -12.9703 H   0  0  0  0  0  0  0  0  0  0  0  0
    4.0007   14.5865  -10.5765 H   0  0  0  0  0  0  0  0  0  0  0  0
    3.8211   13.2815   -8.4462 H   0  0  0  0  0  0  0  0  0  0  0  0
    1.6585   12.1419   -7.9497 H   0  0  0  0  0  0  0  0  0  0  0  0
   -0.1685    9.4282  -11.3729 H   0  0  0  0  0  0  0  0  0  0  0  0
    1.0376   10.6965  -11.0823 H   0  0  0  0  0  0  0  0  0  0  0  0
    1.5369    9.7414   -8.8489 H   0  0  0  0  0  0  0  0  0  0  0  0
    0.2640    8.5386   -9.0522 H   0  0  0  0  0  0  0  0  0  0  0  0
    1.7058    8.4843  -10.0786 H   0  0  0  0  0  0  0  0  0  0  0  0
   -1.7938   14.6876   -9.0584 H   0  0  0  0  0  0  0  0  0  0  0  0
   -3.0975   13.9285   -8.1464 H   0  0  0  0  0  0  0  0  0  0  0  0
   -1.8044   15.4344   -5.2102 H   0  0  0  0  0  0  0  0  0  0  0  0
   -2.6010   16.0099   -6.6786 H   0  0  0  0  0  0  0  0  0  0  0  0
   -3.1617   14.5346   -5.8826 H   0  0  0  0  0  0  0  0  0  0  0  0
    0.3813   15.5282   -6.3866 H   0  0  0  0  0  0  0  0  0  0  0  0
    0.6345   14.6566   -7.9010 H   0  0  0  0  0  0  0  0  0  0  0  0
   -0.4102   16.0708   -7.8645 H   0  0  0  0  0  0  0  0  0  0  0  0
   -0.5866   12.2519   -6.8614 H   0  0  0  0  0  0  0  0  0  0  0  0
    0.0872   13.3587   -5.6343 H   0  0  0  0  0  0  0  0  0  0  0  0
   -3.9218   11.4142   -4.1894 H   0  0  0  0  0  0  0  0  0  0  0  0
   -2.9507    9.0674   -4.5414 H   0  0  0  0  0  0  0  0  0  0  0  0
   -4.5677    8.0798   -4.9464 H   0  0  0  0  0  0  0  0  0  0  0  0
   -7.1137    7.2592   -3.7527 H   0  0  0  0  0  0  0  0  0  0  0  0
   -8.1064    5.5728   -4.6184 H   0  0  0  0  0  0  0  0  0  0  0  0
   -6.2215    3.4408   -5.7188 H   0  0  0  0  0  0  0  0  0  0  0  0
   -8.9032    3.2165   -4.2622 H   0  0  0  0  0  0  0  0  0  0  0  0
   -8.7065    2.9723   -5.9942 H   0  0  0  0  0  0  0  0  0  0  0  0
   -7.9272    1.8732   -4.8560 H   0  0  0  0  0  0  0  0  0  0  0  0
   -7.0001    4.1440   -2.8552 H   0  0  0  0  0  0  0  0  0  0  0  0
   -6.0770    2.7219   -3.3440 H   0  0  0  0  0  0  0  0  0  0  0  0
   -5.4042    4.3340   -3.5832 H   0  0  0  0  0  0  0  0  0  0  0  0
  -10.8769    8.0254   -7.2402 H   0  0  0  0  0  0  0  0  0  0  0  0
   -9.4879    8.9186   -7.8729 H   0  0  0  0  0  0  0  0  0  0  0  0
  -11.5189    9.2365   -9.3222 H   0  0  0  0  0  0  0  0  0  0  0  0
  -10.1773    8.4564  -10.1942 H   0  0  0  0  0  0  0  0  0  0  0  0
  -12.5402   12.4692   -7.5313 H   0  0  0  0  0  0  0  0  0  0  0  0
  -13.8911   11.6645   -6.7464 H   0  0  0  0  0  0  0  0  0  0  0  0
  -12.6884   10.7030   -7.6375 H   0  0  0  0  0  0  0  0  0  0  0  0
  -12.4675   12.9048   -9.6719 H   0  0  0  0  0  0  0  0  0  0  0  0
  -12.6292   11.2555  -10.3094 H   0  0  0  0  0  0  0  0  0  0  0  0
  -13.7760   12.5307  -10.7838 H   0  0  0  0  0  0  0  0  0  0  0  0
  -15.4666   10.1969   -7.0167 H   0  0  0  0  0  0  0  0  0  0  0  0
  -16.3309   11.6418   -7.5760 H   0  0  0  0  0  0  0  0  0  0  0  0
  -16.8145   10.0302   -8.1289 H   0  0  0  0  0  0  0  0  0  0  0  0
  -16.2420   12.1638  -10.2152 H   0  0  0  0  0  0  0  0  0  0  0  0
  -15.3085   11.0418  -11.2245 H   0  0  0  0  0  0  0  0  0  0  0  0
  -16.7267   10.4671  -10.3642 H   0  0  0  0  0  0  0  0  0  0  0  0
  -11.7822    5.1815  -10.0555 H   0  0  0  0  0  0  0  0  0  0  0  0
  -10.3334    6.0367  -10.6553 H   0  0  0  0  0  0  0  0  0  0  0  0
   -9.7274    4.7123   -8.6687 H   0  0  0  0  0  0  0  0  0  0  0  0
  -11.0137    5.4777   -7.7210 H   0  0  0  0  0  0  0  0  0  0  0  0
   -6.0926    4.9046   -7.5751 H   0  0  0  0  0  0  0  0  0  0  0  0
   -7.4178    3.7280   -7.7466 H   0  0  0  0  0  0  0  0  0  0  0  0
   -7.4048    5.2187   -8.7013 H   0  0  0  0  0  0  0  0  0  0  0  0
   -7.1961    9.4096   -4.8418 H   0  0  0  0  0  0  0  0  0  0  0  0
   -5.9915   10.4269   -4.0656 H   0  0  0  0  0  0  0  0  0  0  0  0
   -4.5238   10.1260   -6.1522 H   0  0  0  0  0  0  0  0  0  0  0  0
   -5.4582    8.2933   -7.3445 H   0  0  0  0  0  0  0  0  0  0  0  0
   -7.1196    8.8821   -7.1707 H   0  0  0  0  0  0  0  0  0  0  0  0
   -6.4979   11.7971   -9.2491 H   0  0  0  0  0  0  0  0  0  0  0  0
   -7.8426   10.6694   -9.0102 H   0  0  0  0  0  0  0  0  0  0  0  0
   -7.3542   12.6667   -7.2089 H   0  0  0  0  0  0  0  0  0  0  0  0
   -8.0216   11.0969   -6.7139 H   0  0  0  0  0  0  0  0  0  0  0  0
   -4.0692    9.3933   -0.6583 H   0  0  0  0  0  0  0  0  0  0  0  0
   -2.3605    9.3588   -1.1824 H   0  0  0  0  0  0  0  0  0  0  0  0
   -4.3470   11.6417   -1.6381 H   0  0  0  0  0  0  0  0  0  0  0  0
   -2.9578   11.6797   -0.5455 H   0  0  0  0  0  0  0  0  0  0  0  0
   -1.4100   11.4235   -2.4523 H   0  0  0  0  0  0  0  0  0  0  0  0
   -2.4756   12.8074   -2.7618 H   0  0  0  0  0  0  0  0  0  0  0  0
   -2.1129    8.4149  -10.4186 H   0  0  0  0  0  0  0  0  0  0  0  0
   -4.4696    8.1950   -9.7118 H   0  0  0  0  0  0  0  0  0  0  0  0
   -4.4816   12.1657   -8.1402 H   0  0  0  0  0  0  0  0  0  0  0  0
  1  2  1  0  0  0  0
  2  3  1  0  0  0  0
  2  5  1  0  0  0  0
  3  4  1  0  0  0  0
  5  6  2  0  0  0  0
  5 10  1  0  0  0  0
  6  7  1  0  0  0  0
  7  8  2  0  0  0  0
  8  9  1  0  0  0  0
  9 10  2  0  0  0  0
 10 11  1  0  0  0  0
 11 12  1  0  0  0  0
 11 15  2  0  0  0  0
 12 13  1  0  0  0  0
 12 68  1  0  0  0  0
 13 14  1  0  0  0  0
 15 16  1  0  0  0  0
 15 67  1  0  0  0  0
 16 17  1  0  0  0  0
 17 18  1  0  0  0  0
 17 19  1  0  0  0  0
 17 20  1  0  0  0  0
 20 21  1  0  0  0  0
 21 22  1  0  0  0  0
 22 23  1  0  0  0  0
 22 66  2  0  0  0  0
 23 24  1  0  0  0  0
 23 65  1  0  0  0  0
 24 25  1  0  0  0  0
 25 26  1  0  0  0  0
 25 63  1  0  0  0  0
 26 27  1  0  0  0  0
 26 62  2  0  0  0  0
 27 28  1  0  0  0  0
 27 55  1  0  0  0  0
 28 29  1  0  0  0  0
 29 30  1  0  0  0  0
 29 54  2  0  0  0  0
 30 31  1  0  0  0  0
 30 34  1  0  0  0  0
 31 32  1  0  0  0  0
 31 33  1  0  0  0  0
 34 35  1  0  0  0  0
 34 53  1  0  0  0  0
 35 36  1  0  0  0  0
 35 52  2  0  0  0  0
 36 37  1  0  0  0  0
 36 51  1  0  0  0  0
 36 73  1  0  0  0  0
 37 38  1  0  0  0  0
 38 39  1  0  0  0  0
 39 40  1  0  0  0  0
 39 50  1  0  0  0  0
 40 41  1  0  0  0  0
 40 49  2  0  0  0  0
 42 43  1  0  0  0  0
 43 44  1  0  0  0  0
 43 47  1  0  0  0  0
 43 48  1  0  0  0  0
 44 45  1  0  0  0  0
 44 46  1  0  0  0  0
 50 51  1  0  0  0  0
 55 56  1  0  0  0  0
 56 57  1  0  0  0  0
 56 61  1  0  0  0  0
 57 58  1  0  0  0  0
 58 59  1  0  0  0  0
 58 71  1  0  0  0  0
 59 60  1  0  0  0  0
 60 61  1  0  0  0  0
 63 64  1  0  0  0  0
 64 65  1  0  0  0  0
 67 68  2  0  0  0  0
 67 72  1  0  0  0  0
 68 69  1  0  0  0  0
 69 70  2  0  0  0  0
 70 71  1  0  0  0  0
 71 72  2  0  0  0  0
 41 42  3  0  0  0  0
  1 74  1  0  0  0  0
  1 75  1  0  0  0  0
  1 76  1  0  0  0  0
  2 77  1  0  0  0  0
  4 78  1  0  0  0  0
  4 79  1  0  0  0  0
  4 80  1  0  0  0  0
  7 81  1  0  0  0  0
  8 82  1  0  0  0  0
  9 83  1  0  0  0  0
 13 84  1  0  0  0  0
 13 85  1  0  0  0  0
 14 86  1  0  0  0  0
 14 87  1  0  0  0  0
 14 88  1  0  0  0  0
 16 89  1  0  0  0  0
 16 90  1  0  0  0  0
 18 91  1  0  0  0  0
 18 92  1  0  0  0  0
 18 93  1  0  0  0  0
 19 94  1  0  0  0  0
 19 95  1  0  0  0  0
 19 96  1  0  0  0  0
 20 97  1  0  0  0  0
 20 98  1  0  0  0  0
 23 99  1  0  0  0  0
 24100  1  0  0  0  0
 27101  1  0  0  0  0
 28102  1  0  0  0  0
 30103  1  0  0  0  0
 31104  1  0  0  0  0
 32105  1  0  0  0  0
 32106  1  0  0  0  0
 32107  1  0  0  0  0
 33108  1  0  0  0  0
 33109  1  0  0  0  0
 33110  1  0  0  0  0
 37111  1  0  0  0  0
 37112  1  0  0  0  0
 38113  1  0  0  0  0
 38114  1  0  0  0  0
 45115  1  0  0  0  0
 45116  1  0  0  0  0
 45117  1  0  0  0  0
 46118  1  0  0  0  0
 46119  1  0  0  0  0
 46120  1  0  0  0  0
 47121  1  0  0  0  0
 47122  1  0  0  0  0
 47123  1  0  0  0  0
 48124  1  0  0  0  0
 48125  1  0  0  0  0
 48126  1  0  0  0  0
 50127  1  0  0  0  0
 50128  1  0  0  0  0
 51129  1  0  0  0  0
 51130  1  0  0  0  0
 53131  1  0  0  0  0
 53132  1  0  0  0  0
 53133  1  0  0  0  0
 55134  1  0  0  0  0
 55135  1  0  0  0  0
 56136  1  0  0  0  0
 57137  1  0  0  0  0
 57138  1  0  0  0  0
 59139  1  0  0  0  0
 59140  1  0  0  0  0
 60141  1  0  0  0  0
 60142  1  0  0  0  0
 63143  1  0  0  0  0
 63144  1  0  0  0  0
 64145  1  0  0  0  0
 64146  1  0  0  0  0
 65147  1  0  0  0  0
 65148  1  0  0  0  0
 69149  1  0  0  0  0
 70150  1  0  0  0  0
 72151  1  0  0  0  0
M  END
$$$$
