 xtb: 6.7.1 (edcfbbe)
          08172519513D

151157  0     0  0            999 V2000
    1.5687    6.8984   -8.0317 C   0  0  0  0  0  0  0  0  0  0  0  0
    1.6674    5.5385   -7.3440 C   0  0  0  0  0  0  0  0  0  0  0  0
    2.9578    4.9597   -7.4775 O   0  0  0  0  0  0  0  0  0  0  0  0
    3.9033    5.4229   -6.5502 C   0  0  0  0  0  0  0  0  0  0  0  0
    0.6906    4.5432   -7.9404 C   0  0  0  0  0  0  0  0  0  0  0  0
    0.2201    4.8033   -9.1475 N   0  0  0  0  0  0  0  0  0  0  0  0
   -0.6303    3.9613   -9.7054 C   0  0  0  0  0  0  0  0  0  0  0  0
   -1.0770    2.8097   -9.0786 C   0  0  0  0  0  0  0  0  0  0  0  0
   -0.5940    2.5319   -7.8110 C   0  0  0  0  0  0  0  0  0  0  0  0
    0.3201    3.3979   -7.2205 C   0  0  0  0  0  0  0  0  0  0  0  0
    0.8449    3.1535   -5.8687 C   0  0  0  0  0  0  0  0  0  0  0  0
    0.1528    3.6197   -4.7701 N   0  0  0  0  0  0  0  0  0  0  0  0
   -1.1253    4.2781   -4.7914 C   0  0  0  0  0  0  0  0  0  0  0  0
   -2.2737    3.3033   -4.5324 C   0  0  0  0  0  0  0  0  0  0  0  0
    2.0186    2.5584   -5.4763 C   0  0  0  0  0  0  0  0  0  0  0  0
    3.0814    1.9876   -6.3590 C   0  0  0  0  0  0  0  0  0  0  0  0
    3.0246    0.4621   -6.6002 C   0  0  0  0  0  0  0  0  0  0  0  0
    4.0316    0.1089   -7.6978 C   0  0  0  0  0  0  0  0  0  0  0  0
    1.6257    0.0332   -7.0395 C   0  0  0  0  0  0  0  0  0  0  0  0
    3.3642   -0.3178   -5.3183 C   0  0  0  0  0  0  0  0  0  0  0  0
    4.7134   -0.1157   -4.8862 O   0  0  0  0  0  0  0  0  0  0  0  0
    5.5977   -1.0800   -5.1379 C   0  0  0  0  0  0  0  0  0  0  0  0
    6.9710   -0.6892   -4.6062 C   0  0  0  0  0  0  0  0  0  0  0  0
    7.3599   -1.6356   -3.5616 N   0  0  0  0  0  0  0  0  0  0  0  0
    8.5532   -1.2237   -2.9577 N   0  0  0  0  0  0  0  0  0  0  0  0
    8.6747   -0.4341   -1.8674 C   0  0  0  0  0  0  0  0  0  0  0  0
    7.3545   -0.1075   -1.1443 C   0  0  0  0  0  0  0  0  0  0  0  0
    7.0668   -1.1256   -0.1571 N   0  0  0  0  0  0  0  0  0  0  0  0
    6.0984   -2.0298   -0.3380 C   0  0  0  0  0  0  0  0  0  0  0  0
    5.8941   -2.9900    0.8310 C   0  0  0  0  0  0  0  0  0  0  0  0
    5.8823   -4.4470    0.3361 C   0  0  0  0  0  0  0  0  0  0  0  0
    5.6665   -5.4046    1.5044 C   0  0  0  0  0  0  0  0  0  0  0  0
    7.2121   -4.7466   -0.3546 C   0  0  0  0  0  0  0  0  0  0  0  0
    4.6794   -2.6203    1.5541 N   0  0  0  0  0  0  0  0  0  0  0  0
    4.8389   -2.1811    2.8173 C   0  0  0  0  0  0  0  0  0  0  0  0
    3.6009   -1.8962    3.6951 C   0  0  0  0  0  0  0  0  0  0  0  0
    4.0271   -1.1124    4.9389 C   0  0  0  0  0  0  0  0  0  0  0  0
    2.8409   -0.9193    5.8853 C   0  0  0  0  0  0  0  0  0  0  0  0
    2.2601   -2.1945    6.2210 N   0  0  0  0  0  0  0  0  0  0  0  0
    2.2813   -2.7646    7.4519 C   0  0  0  0  0  0  0  0  0  0  0  0
    2.8249   -1.9313    8.4965 C   0  0  0  0  0  0  0  0  0  0  0  0
    3.2462   -1.3488    9.4614 C   0  0  0  0  0  0  0  0  0  0  0  0
    3.7881   -0.6196   10.6045 C   0  0  0  0  0  0  0  0  0  0  0  0
    3.9189    0.7896   10.2135 N   0  0  0  0  0  0  0  0  0  0  0  0
    2.6744    1.4047    9.8001 C   0  0  0  0  0  0  0  0  0  0  0  0
    4.6109    1.6380   11.1585 C   0  0  0  0  0  0  0  0  0  0  0  0
    2.8616   -0.8681   11.8119 C   0  0  0  0  0  0  0  0  0  0  0  0
    5.1721   -1.2293   10.8822 C   0  0  0  0  0  0  0  0  0  0  0  0
    1.8536   -3.8824    7.6766 O   0  0  0  0  0  0  0  0  0  0  0  0
    1.7886   -2.9472    5.0853 C   0  0  0  0  0  0  0  0  0  0  0  0
    2.9326   -3.2128    4.1032 C   0  0  0  0  0  0  0  0  0  0  0  0
    5.9420   -2.0695    3.3289 O   0  0  0  0  0  0  0  0  0  0  0  0
    3.4379   -2.7791    0.8283 C   0  0  0  0  0  0  0  0  0  0  0  0
    5.4481   -2.0991   -1.3741 O   0  0  0  0  0  0  0  0  0  0  0  0
    7.4033    1.2825   -0.5128 C   0  0  0  0  0  0  0  0  0  0  0  0
    6.0225    1.7786   -0.0696 C   0  0  0  0  0  0  0  0  0  0  0  0
    5.0177    1.8167   -1.2294 C   0  0  0  0  0  0  0  0  0  0  0  0
    3.7273    2.2793   -0.7596 N   0  0  0  0  0  0  0  0  0  0  0  0
    3.2645    1.4107    0.3118 C   0  0  0  0  0  0  0  0  0  0  0  0
    4.3000    1.4093    1.4337 C   0  0  0  0  0  0  0  0  0  0  0  0
    5.5509    0.9530    0.9773 O   0  0  0  0  0  0  0  0  0  0  0  0
    9.7533   -0.0543   -1.4515 O   0  0  0  0  0  0  0  0  0  0  0  0
    9.6597   -1.3952   -3.8801 C   0  0  0  0  0  0  0  0  0  0  0  0
    9.4185   -0.5103   -5.1065 C   0  0  0  0  0  0  0  0  0  0  0  0
    8.0392   -0.7957   -5.7022 C   0  0  0  0  0  0  0  0  0  0  0  0
    5.3553   -2.1157   -5.6934 O   0  0  0  0  0  0  0  0  0  0  0  0
    2.0633    2.6710   -4.0532 C   0  0  0  0  0  0  0  0  0  0  0  0
    0.8803    3.3278   -3.6481 C   0  0  0  0  0  0  0  0  0  0  0  0
    0.6425    3.6031   -2.3065 C   0  0  0  0  0  0  0  0  0  0  0  0
    1.5950    3.2273   -1.3880 C   0  0  0  0  0  0  0  0  0  0  0  0
    2.7831    2.5734   -1.7668 C   0  0  0  0  0  0  0  0  0  0  0  0
    3.0141    2.2977   -3.1039 C   0  0  0  0  0  0  0  0  0  0  0  0
    2.6650   -1.1100    3.0163 F   0  0  0  0  0  0  0  0  0  0  0  0
    2.2617    7.6039   -7.5803 H   0  0  0  0  0  0  0  0  0  0  0  0
    1.8029    6.7845   -9.0851 H   0  0  0  0  0  0  0  0  0  0  0  0
    0.5583    7.2849   -7.9359 H   0  0  0  0  0  0  0  0  0  0  0  0
    1.4393    5.6492   -6.2696 H   0  0  0  0  0  0  0  0  0  0  0  0
    3.5796    5.2209   -5.5209 H   0  0  0  0  0  0  0  0  0  0  0  0
    4.8207    4.8743   -6.7542 H   0  0  0  0  0  0  0  0  0  0  0  0
    4.0970    6.4957   -6.6587 H   0  0  0  0  0  0  0  0  0  0  0  0
   -0.9722    4.2341  -10.6952 H   0  0  0  0  0  0  0  0  0  0  0  0
   -1.7838    2.1531   -9.5617 H   0  0  0  0  0  0  0  0  0  0  0  0
   -0.9217    1.6500   -7.2792 H   0  0  0  0  0  0  0  0  0  0  0  0
   -1.1241    5.0587   -4.0242 H   0  0  0  0  0  0  0  0  0  0  0  0
   -1.2555    4.7556   -5.7674 H   0  0  0  0  0  0  0  0  0  0  0  0
   -2.1305    2.7995   -3.5795 H   0  0  0  0  0  0  0  0  0  0  0  0
   -3.2193    3.8381   -4.5092 H   0  0  0  0  0  0  0  0  0  0  0  0
   -2.3176    2.5531   -5.3179 H   0  0  0  0  0  0  0  0  0  0  0  0
    3.0229    2.4879   -7.3276 H   0  0  0  0  0  0  0  0  0  0  0  0
    4.0546    2.2188   -5.9196 H   0  0  0  0  0  0  0  0  0  0  0  0
    5.0241    0.4765   -7.4440 H   0  0  0  0  0  0  0  0  0  0  0  0
    4.0911   -0.9690   -7.8318 H   0  0  0  0  0  0  0  0  0  0  0  0
    3.7329    0.5624   -8.6398 H   0  0  0  0  0  0  0  0  0  0  0  0
    0.9051    0.2196   -6.2466 H   0  0  0  0  0  0  0  0  0  0  0  0
    1.3286    0.5923   -7.9230 H   0  0  0  0  0  0  0  0  0  0  0  0
    1.6104   -1.0277   -7.2794 H   0  0  0  0  0  0  0  0  0  0  0  0
    2.7281    0.0147   -4.4954 H   0  0  0  0  0  0  0  0  0  0  0  0
    3.2194   -1.3892   -5.4885 H   0  0  0  0  0  0  0  0  0  0  0  0
    6.9156    0.3490   -4.2317 H   0  0  0  0  0  0  0  0  0  0  0  0
    6.6191   -1.8346   -2.8903 H   0  0  0  0  0  0  0  0  0  0  0  0
    6.5419   -0.1430   -1.8718 H   0  0  0  0  0  0  0  0  0  0  0  0
    7.5113   -1.0290    0.7428 H   0  0  0  0  0  0  0  0  0  0  0  0
    6.7136   -2.8694    1.5461 H   0  0  0  0  0  0  0  0  0  0  0  0
    5.0791   -4.5673   -0.3963 H   0  0  0  0  0  0  0  0  0  0  0  0
    4.7136   -5.2268    1.9968 H   0  0  0  0  0  0  0  0  0  0  0  0
    5.6818   -6.4331    1.1521 H   0  0  0  0  0  0  0  0  0  0  0  0
    6.4565   -5.2806    2.2419 H   0  0  0  0  0  0  0  0  0  0  0  0
    7.2322   -5.7804   -0.6900 H   0  0  0  0  0  0  0  0  0  0  0  0
    7.3535   -4.1066   -1.2221 H   0  0  0  0  0  0  0  0  0  0  0  0
    8.0424   -4.5914    0.3314 H   0  0  0  0  0  0  0  0  0  0  0  0
    4.8246   -1.6645    5.4344 H   0  0  0  0  0  0  0  0  0  0  0  0
    4.4249   -0.1439    4.6333 H   0  0  0  0  0  0  0  0  0  0  0  0
    3.1678   -0.4159    6.7962 H   0  0  0  0  0  0  0  0  0  0  0  0
    2.0780   -0.3044    5.3913 H   0  0  0  0  0  0  0  0  0  0  0  0
    2.0294    1.6889   10.6455 H   0  0  0  0  0  0  0  0  0  0  0  0
    2.9093    2.3085    9.2358 H   0  0  0  0  0  0  0  0  0  0  0  0
    2.1239    0.7248    9.1527 H   0  0  0  0  0  0  0  0  0  0  0  0
    5.5929    1.2326   11.3852 H   0  0  0  0  0  0  0  0  0  0  0  0
    4.7492    2.6136   10.6920 H   0  0  0  0  0  0  0  0  0  0  0  0
    4.0580    1.7886   12.0988 H   0  0  0  0  0  0  0  0  0  0  0  0
    3.2436   -0.3540   12.6911 H   0  0  0  0  0  0  0  0  0  0  0  0
    1.8535   -0.5176   11.6035 H   0  0  0  0  0  0  0  0  0  0  0  0
    2.8163   -1.9334   12.0227 H   0  0  0  0  0  0  0  0  0  0  0  0
    5.5415   -0.9298   11.8595 H   0  0  0  0  0  0  0  0  0  0  0  0
    5.0987   -2.3141   10.8626 H   0  0  0  0  0  0  0  0  0  0  0  0
    5.8748   -0.9138   10.1153 H   0  0  0  0  0  0  0  0  0  0  0  0
    1.3771   -3.8886    5.4551 H   0  0  0  0  0  0  0  0  0  0  0  0
    0.9990   -2.3779    4.5809 H   0  0  0  0  0  0  0  0  0  0  0  0
    2.5401   -3.7265    3.2261 H   0  0  0  0  0  0  0  0  0  0  0  0
    3.6891   -3.8430    4.5734 H   0  0  0  0  0  0  0  0  0  0  0  0
    3.0528   -3.7983    0.9248 H   0  0  0  0  0  0  0  0  0  0  0  0
    2.6829   -2.0791    1.1671 H   0  0  0  0  0  0  0  0  0  0  0  0
    3.6320   -2.5867   -0.2264 H   0  0  0  0  0  0  0  0  0  0  0  0
    8.0698    1.2583    0.3503 H   0  0  0  0  0  0  0  0  0  0  0  0
    7.8165    1.9863   -1.2365 H   0  0  0  0  0  0  0  0  0  0  0  0
    6.1266    2.8085    0.3165 H   0  0  0  0  0  0  0  0  0  0  0  0
    5.3894    2.5088   -1.9876 H   0  0  0  0  0  0  0  0  0  0  0  0
    4.9163    0.8103   -1.6643 H   0  0  0  0  0  0  0  0  0  0  0  0
    2.3088    1.7629    0.6961 H   0  0  0  0  0  0  0  0  0  0  0  0
    3.1384    0.3766   -0.0527 H   0  0  0  0  0  0  0  0  0  0  0  0
    4.4012    2.4285    1.8370 H   0  0  0  0  0  0  0  0  0  0  0  0
    3.9982    0.7310    2.2301 H   0  0  0  0  0  0  0  0  0  0  0  0
   10.5776   -1.1170   -3.3624 H   0  0  0  0  0  0  0  0  0  0  0  0
    9.6932   -2.4472   -4.1708 H   0  0  0  0  0  0  0  0  0  0  0  0
    9.4775    0.5376   -4.8025 H   0  0  0  0  0  0  0  0  0  0  0  0
   10.1934   -0.6939   -5.8504 H   0  0  0  0  0  0  0  0  0  0  0  0
    8.0026   -1.8111   -6.0986 H   0  0  0  0  0  0  0  0  0  0  0  0
    7.8214   -0.0959   -6.5103 H   0  0  0  0  0  0  0  0  0  0  0  0
   -0.2550    4.1101   -1.9843 H   0  0  0  0  0  0  0  0  0  0  0  0
    1.4393    3.4588   -0.3455 H   0  0  0  0  0  0  0  0  0  0  0  0
    3.9095    1.8029   -3.4389 H   0  0  0  0  0  0  0  0  0  0  0  0
  1  2  1  0  0  0  0
  2  3  1  0  0  0  0
  3  4  1  0  0  0  0
  2  5  1  0  0  0  0
  5  6  4  0  0  0  0
  6  7  4  0  0  0  0
  7  8  4  0  0  0  0
  8  9  4  0  0  0  0
  5 10  4  0  0  0  0
  9 10  4  0  0  0  0
 10 11  1  0  0  0  0
 11 12  1  0  0  0  0
 12 13  1  0  0  0  0
 13 14  1  0  0  0  0
 11 15  2  0  0  0  0
 15 16  1  0  0  0  0
 16 17  1  0  0  0  0
 17 18  1  0  0  0  0
 17 19  1  0  0  0  0
 17 20  1  0  0  0  0
 20 21  1  0  0  0  0
 21 22  1  0  0  0  0
 22 23  1  0  0  0  0
 23 24  1  0  0  0  0
 24 25  1  0  0  0  0
 25 26  4  0  0  0  0
 26 27  1  0  0  0  0
 27 28  1  0  0  0  0
 28 29  4  0  0  0  0
 29 30  1  0  0  0  0
 30 31  1  0  0  0  0
 31 32  1  0  0  0  0
 31 33  1  0  0  0  0
 30 34  1  0  0  0  0
 34 35  4  0  0  0  0
 35 36  1  0  0  0  0
 36 37  1  0  0  0  0
 37 38  1  0  0  0  0
 38 39  1  0  0  0  0
 39 40  4  0  0  0  0
 40 41  1  0  0  0  0
 41 42  3  0  0  0  0
 42 43  1  0  0  0  0
 43 44  1  0  0  0  0
 44 45  1  0  0  0  0
 44 46  1  0  0  0  0
 43 47  1  0  0  0  0
 43 48  1  0  0  0  0
 40 49  2  0  0  0  0
 39 50  1  0  0  0  0
 36 51  1  0  0  0  0
 50 51  1  0  0  0  0
 35 52  2  0  0  0  0
 34 53  1  0  0  0  0
 29 54  2  0  0  0  0
 27 55  1  0  0  0  0
 55 56  1  0  0  0  0
 56 57  1  0  0  0  0
 57 58  1  0  0  0  0
 58 59  1  0  0  0  0
 59 60  1  0  0  0  0
 56 61  1  0  0  0  0
 60 61  1  0  0  0  0
 26 62  2  0  0  0  0
 25 63  1  0  0  0  0
 63 64  1  0  0  0  0
 23 65  1  0  0  0  0
 64 65  1  0  0  0  0
 22 66  2  0  0  0  0
 15 67  4  0  0  0  0
 12 68  1  0  0  0  0
 67 68  4  0  0  0  0
 68 69  4  0  0  0  0
 69 70  2  0  0  0  0
 58 71  1  0  0  0  0
 70 71  4  0  0  0  0
 67 72  4  0  0  0  0
 71 72  4  0  0  0  0
 36 73  1  0  0  0  0
  1 74  1  0  0  0  0
  1 75  1  0  0  0  0
  1 76  1  0  0  0  0
  2 77  1  0  0  0  0
  4 78  1  0  0  0  0
  4 79  1  0  0  0  0
  4 80  1  0  0  0  0
  7 81  1  0  0  0  0
  8 82  1  0  0  0  0
  9 83  1  0  0  0  0
 13 84  1  0  0  0  0
 13 85  1  0  0  0  0
 14 86  1  0  0  0  0
 14 87  1  0  0  0  0
 14 88  1  0  0  0  0
 16 89  1  0  0  0  0
 16 90  1  0  0  0  0
 18 91  1  0  0  0  0
 18 92  1  0  0  0  0
 18 93  1  0  0  0  0
 19 94  1  0  0  0  0
 19 95  1  0  0  0  0
 19 96  1  0  0  0  0
 20 97  1  0  0  0  0
 20 98  1  0  0  0  0
 23 99  1  0  0  0  0
 24100  1  0  0  0  0
 27101  1  0  0  0  0
 28102  1  0  0  0  0
 30103  1  0  0  0  0
 31104  1  0  0  0  0
 32105  1  0  0  0  0
 32106  1  0  0  0  0
 32107  1  0  0  0  0
 33108  1  0  0  0  0
 33109  1  0  0  0  0
 33110  1  0  0  0  0
 37111  1  0  0  0  0
 37112  1  0  0  0  0
 38113  1  0  0  0  0
 38114  1  0  0  0  0
 45115  1  0  0  0  0
 45116  1  0  0  0  0
 45117  1  0  0  0  0
 46118  1  0  0  0  0
 46119  1  0  0  0  0
 46120  1  0  0  0  0
 47121  1  0  0  0  0
 47122  1  0  0  0  0
 47123  1  0  0  0  0
 48124  1  0  0  0  0
 48125  1  0  0  0  0
 48126  1  0  0  0  0
 50127  1  0  0  0  0
 50128  1  0  0  0  0
 51129  1  0  0  0  0
 51130  1  0  0  0  0
 53131  1  0  0  0  0
 53132  1  0  0  0  0
 53133  1  0  0  0  0
 55134  1  0  0  0  0
 55135  1  0  0  0  0
 56136  1  0  0  0  0
 57137  1  0  0  0  0
 57138  1  0  0  0  0
 59139  1  0  0  0  0
 59140  1  0  0  0  0
 60141  1  0  0  0  0
 60142  1  0  0  0  0
 63143  1  0  0  0  0
 63144  1  0  0  0  0
 64145  1  0  0  0  0
 64146  1  0  0  0  0
 65147  1  0  0  0  0
 65148  1  0  0  0  0
 69149  1  0  0  0  0
 70150  1  0  0  0  0
 72151  1  0  0  0  0
M  END
$$$$
