 xtb: 6.7.1 (edcfbbe)
          08072517263D

151157  0     0  0            999 V2000
   16.9794   22.5906   61.1835 C   0  0  0  0  0  0  0  0  0  0  0  0
   16.4244   23.8479   60.5173 C   0  0  0  0  0  0  0  0  0  0  0  0
   16.6932   25.0201   61.2732 O   0  0  0  0  0  0  0  0  0  0  0  0
   17.9707   25.5636   61.0715 C   0  0  0  0  0  0  0  0  0  0  0  0
   14.9175   23.7728   60.3621 C   0  0  0  0  0  0  0  0  0  0  0  0
   14.2707   22.9166   61.1332 N   0  0  0  0  0  0  0  0  0  0  0  0
   12.9589   22.8125   61.0268 C   0  0  0  0  0  0  0  0  0  0  0  0
   12.2126   23.5468   60.1199 C   0  0  0  0  0  0  0  0  0  0  0  0
   12.8820   24.4436   59.3044 C   0  0  0  0  0  0  0  0  0  0  0  0
   14.2601   24.5868   59.4279 C   0  0  0  0  0  0  0  0  0  0  0  0
   15.0137   25.5191   58.5759 C   0  0  0  0  0  0  0  0  0  0  0  0
   15.4337   25.1204   57.3261 N   0  0  0  0  0  0  0  0  0  0  0  0
   15.1401   23.8634   56.6923 C   0  0  0  0  0  0  0  0  0  0  0  0
   13.9569   23.9718   55.7309 C   0  0  0  0  0  0  0  0  0  0  0  0
   15.4633   26.7887   58.8489 C   0  0  0  0  0  0  0  0  0  0  0  0
   15.2271   27.5576   60.1088 C   0  0  0  0  0  0  0  0  0  0  0  0
   14.0223   28.5270   60.0863 C   0  0  0  0  0  0  0  0  0  0  0  0
   12.7726   27.8420   59.5370 C   0  0  0  0  0  0  0  0  0  0  0  0
   13.7518   29.0051   61.5151 C   0  0  0  0  0  0  0  0  0  0  0  0
   14.3262   29.7393   59.2005 C   0  0  0  0  0  0  0  0  0  0  0  0
   15.3902   30.5008   59.7805 O   0  0  0  0  0  0  0  0  0  0  0  0
   15.7974   31.5643   59.1024 C   0  0  0  0  0  0  0  0  0  0  0  0
   16.9495   32.2682   59.8044 C   0  0  0  0  0  0  0  0  0  0  0  0
   17.0562   33.6484   59.3653 N   0  0  0  0  0  0  0  0  0  0  0  0
   18.3002   34.1587   59.7444 N   0  0  0  0  0  0  0  0  0  0  0  0
   19.4551   34.0145   59.0537 C   0  0  0  0  0  0  0  0  0  0  0  0
   19.3262   33.4618   57.6206 C   0  0  0  0  0  0  0  0  0  0  0  0
   19.4493   34.5573   56.6854 N   0  0  0  0  0  0  0  0  0  0  0  0
   18.3689   35.2365   56.2813 C   0  0  0  0  0  0  0  0  0  0  0  0
   18.6858   36.2907   55.2168 C   0  0  0  0  0  0  0  0  0  0  0  0
   17.7627   37.5116   55.2902 C   0  0  0  0  0  0  0  0  0  0  0  0
   18.1377   38.5269   54.2131 C   0  0  0  0  0  0  0  0  0  0  0  0
   17.8928   38.1448   56.6750 C   0  0  0  0  0  0  0  0  0  0  0  0
   18.6448   35.5950   53.9270 N   0  0  0  0  0  0  0  0  0  0  0  0
   19.8215   35.1307   53.4706 C   0  0  0  0  0  0  0  0  0  0  0  0
   19.9145   34.5252   52.0563 C   0  0  0  0  0  0  0  0  0  0  0  0
   19.7091   35.6290   51.0140 C   0  0  0  0  0  0  0  0  0  0  0  0
   19.9336   35.0744   49.6049 C   0  0  0  0  0  0  0  0  0  0  0  0
   21.2294   34.4489   49.5082 N   0  0  0  0  0  0  0  0  0  0  0  0
   22.1810   34.9777   48.6983 C   0  0  0  0  0  0  0  0  0  0  0  0
   23.4507   34.2933   48.7210 C   0  0  0  0  0  0  0  0  0  0  0  0
   24.5717   33.8570   48.6587 C   0  0  0  0  0  0  0  0  0  0  0  0
   25.8626   33.1908   48.4932 C   0  0  0  0  0  0  0  0  0  0  0  0
   25.8479   32.3259   47.3005 N   0  0  0  0  0  0  0  0  0  0  0  0
   24.8902   31.2388   47.3785 C   0  0  0  0  0  0  0  0  0  0  0  0
   25.6760   33.0551   46.0560 C   0  0  0  0  0  0  0  0  0  0  0  0
   26.9565   34.2610   48.3531 C   0  0  0  0  0  0  0  0  0  0  0  0
   26.1651   32.3523   49.7459 C   0  0  0  0  0  0  0  0  0  0  0  0
   21.9826   35.9388   47.9768 O   0  0  0  0  0  0  0  0  0  0  0  0
   21.4361   33.3641   50.4332 C   0  0  0  0  0  0  0  0  0  0  0  0
   21.2787   33.8584   51.8720 C   0  0  0  0  0  0  0  0  0  0  0  0
   20.8605   35.2905   54.0977 O   0  0  0  0  0  0  0  0  0  0  0  0
   17.3214   35.2708   53.4396 C   0  0  0  0  0  0  0  0  0  0  0  0
   17.2395   35.0031   56.6790 O   0  0  0  0  0  0  0  0  0  0  0  0
   20.3826   32.3834   57.3770 C   0  0  0  0  0  0  0  0  0  0  0  0
   19.9359   31.3485   56.3410 C   0  0  0  0  0  0  0  0  0  0  0  0
   18.7840   30.4661   56.8530 C   0  0  0  0  0  0  0  0  0  0  0  0
   18.4148   29.5256   55.8171 N   0  0  0  0  0  0  0  0  0  0  0  0
   18.0088   30.2513   54.6245 C   0  0  0  0  0  0  0  0  0  0  0  0
   19.1771   31.1161   54.1585 C   0  0  0  0  0  0  0  0  0  0  0  0
   19.5686   32.0279   55.1577 O   0  0  0  0  0  0  0  0  0  0  0  0
   20.5304   34.3583   59.5087 O   0  0  0  0  0  0  0  0  0  0  0  0
   18.3178   34.3674   61.1807 C   0  0  0  0  0  0  0  0  0  0  0  0
   18.0964   33.0214   61.8826 C   0  0  0  0  0  0  0  0  0  0  0  0
   16.8504   32.3187   61.3333 C   0  0  0  0  0  0  0  0  0  0  0  0
   15.3639   31.9002   58.0313 O   0  0  0  0  0  0  0  0  0  0  0  0
   16.2211   27.1978   57.7081 C   0  0  0  0  0  0  0  0  0  0  0  0
   16.1649   26.1369   56.7750 C   0  0  0  0  0  0  0  0  0  0  0  0
   16.8143   26.2207   55.5491 C   0  0  0  0  0  0  0  0  0  0  0  0
   17.5240   27.3638   55.2716 C   0  0  0  0  0  0  0  0  0  0  0  0
   17.6071   28.4322   56.1856 C   0  0  0  0  0  0  0  0  0  0  0  0
   16.9601   28.3443   57.4061 C   0  0  0  0  0  0  0  0  0  0  0  0
   18.9499   33.5372   51.8450 F   0  0  0  0  0  0  0  0  0  0  0  0
   16.5465   22.4899   62.1735 H   0  0  0  0  0  0  0  0  0  0  0  0
   16.7167   21.7170   60.5943 H   0  0  0  0  0  0  0  0  0  0  0  0
   18.0617   22.6502   61.2653 H   0  0  0  0  0  0  0  0  0  0  0  0
   16.8708   23.9637   59.5143 H   0  0  0  0  0  0  0  0  0  0  0  0
   18.0159   26.4637   61.6815 H   0  0  0  0  0  0  0  0  0  0  0  0
   18.7656   24.8784   61.3860 H   0  0  0  0  0  0  0  0  0  0  0  0
   18.1253   25.8298   60.0178 H   0  0  0  0  0  0  0  0  0  0  0  0
   12.4940   22.0974   61.6927 H   0  0  0  0  0  0  0  0  0  0  0  0
   11.1436   23.4198   60.0484 H   0  0  0  0  0  0  0  0  0  0  0  0
   12.3425   25.0307   58.5751 H   0  0  0  0  0  0  0  0  0  0  0  0
   16.0302   23.5354   56.1460 H   0  0  0  0  0  0  0  0  0  0  0  0
   14.9226   23.1248   57.4696 H   0  0  0  0  0  0  0  0  0  0  0  0
   13.0536   24.2445   56.2706 H   0  0  0  0  0  0  0  0  0  0  0  0
   14.1527   24.7316   54.9782 H   0  0  0  0  0  0  0  0  0  0  0  0
   13.7910   23.0194   55.2347 H   0  0  0  0  0  0  0  0  0  0  0  0
   15.0767   26.8417   60.9188 H   0  0  0  0  0  0  0  0  0  0  0  0
   16.1194   28.1429   60.3398 H   0  0  0  0  0  0  0  0  0  0  0  0
   12.5377   26.9686   60.1393 H   0  0  0  0  0  0  0  0  0  0  0  0
   11.9226   28.5205   59.5651 H   0  0  0  0  0  0  0  0  0  0  0  0
   12.9301   27.5297   58.5076 H   0  0  0  0  0  0  0  0  0  0  0  0
   13.4828   28.1632   62.1482 H   0  0  0  0  0  0  0  0  0  0  0  0
   14.6352   29.4826   61.9295 H   0  0  0  0  0  0  0  0  0  0  0  0
   12.9345   29.7230   61.5282 H   0  0  0  0  0  0  0  0  0  0  0  0
   14.6163   29.4264   58.1925 H   0  0  0  0  0  0  0  0  0  0  0  0
   13.4473   30.3880   59.1149 H   0  0  0  0  0  0  0  0  0  0  0  0
   17.8556   31.6836   59.5373 H   0  0  0  0  0  0  0  0  0  0  0  0
   16.8254   33.8299   58.3897 H   0  0  0  0  0  0  0  0  0  0  0  0
   18.3290   33.0451   57.4622 H   0  0  0  0  0  0  0  0  0  0  0  0
   20.3480   34.7345   56.2592 H   0  0  0  0  0  0  0  0  0  0  0  0
   19.7182   36.6293   55.3496 H   0  0  0  0  0  0  0  0  0  0  0  0
   16.7257   37.1931   55.1596 H   0  0  0  0  0  0  0  0  0  0  0  0
   17.4673   39.3818   54.2544 H   0  0  0  0  0  0  0  0  0  0  0  0
   19.1543   38.8809   54.3710 H   0  0  0  0  0  0  0  0  0  0  0  0
   18.0822   38.0962   53.2166 H   0  0  0  0  0  0  0  0  0  0  0  0
   17.5754   37.4476   57.4453 H   0  0  0  0  0  0  0  0  0  0  0  0
   18.9237   38.4333   56.8698 H   0  0  0  0  0  0  0  0  0  0  0  0
   17.2685   39.0325   56.7381 H   0  0  0  0  0  0  0  0  0  0  0  0
   18.6988   36.0318   51.0901 H   0  0  0  0  0  0  0  0  0  0  0  0
   20.4232   36.4277   51.2198 H   0  0  0  0  0  0  0  0  0  0  0  0
   19.1594   34.3322   49.3766 H   0  0  0  0  0  0  0  0  0  0  0  0
   19.8942   35.8776   48.8664 H   0  0  0  0  0  0  0  0  0  0  0  0
   25.1296   30.5848   48.2131 H   0  0  0  0  0  0  0  0  0  0  0  0
   23.8508   31.5856   47.4803 H   0  0  0  0  0  0  0  0  0  0  0  0
   24.9672   30.6513   46.4647 H   0  0  0  0  0  0  0  0  0  0  0  0
   26.5140   33.7286   45.8977 H   0  0  0  0  0  0  0  0  0  0  0  0
   25.6689   32.3360   45.2380 H   0  0  0  0  0  0  0  0  0  0  0  0
   24.7408   33.6313   46.0210 H   0  0  0  0  0  0  0  0  0  0  0  0
   27.1165   34.7481   49.3118 H   0  0  0  0  0  0  0  0  0  0  0  0
   27.8830   33.7895   48.0362 H   0  0  0  0  0  0  0  0  0  0  0  0
   26.6746   35.0260   47.6353 H   0  0  0  0  0  0  0  0  0  0  0  0
   26.3793   33.0108   50.5840 H   0  0  0  0  0  0  0  0  0  0  0  0
   25.3229   31.7245   50.0240 H   0  0  0  0  0  0  0  0  0  0  0  0
   27.0328   31.7259   49.5568 H   0  0  0  0  0  0  0  0  0  0  0  0
   20.6909   32.5834   50.2338 H   0  0  0  0  0  0  0  0  0  0  0  0
   22.4335   32.9474   50.2846 H   0  0  0  0  0  0  0  0  0  0  0  0
   22.0527   34.5857   52.1136 H   0  0  0  0  0  0  0  0  0  0  0  0
   21.3597   33.0257   52.5714 H   0  0  0  0  0  0  0  0  0  0  0  0
   16.7021   34.9776   54.2887 H   0  0  0  0  0  0  0  0  0  0  0  0
   16.8635   36.1366   52.9559 H   0  0  0  0  0  0  0  0  0  0  0  0
   17.3415   34.4456   52.7396 H   0  0  0  0  0  0  0  0  0  0  0  0
   21.3008   32.8631   57.0361 H   0  0  0  0  0  0  0  0  0  0  0  0
   20.6061   31.8695   58.3135 H   0  0  0  0  0  0  0  0  0  0  0  0
   20.7850   30.6778   56.1165 H   0  0  0  0  0  0  0  0  0  0  0  0
   19.1291   29.9123   57.7292 H   0  0  0  0  0  0  0  0  0  0  0  0
   17.9260   31.0996   57.1306 H   0  0  0  0  0  0  0  0  0  0  0  0
   17.7284   29.5519   53.8383 H   0  0  0  0  0  0  0  0  0  0  0  0
   17.1465   30.9041   54.8423 H   0  0  0  0  0  0  0  0  0  0  0  0
   20.0270   30.4660   53.8966 H   0  0  0  0  0  0  0  0  0  0  0  0
   18.8905   31.7118   53.2931 H   0  0  0  0  0  0  0  0  0  0  0  0
   19.2815   34.7983   61.4511 H   0  0  0  0  0  0  0  0  0  0  0  0
   17.5121   35.0626   61.4244 H   0  0  0  0  0  0  0  0  0  0  0  0
   18.9728   32.3910   61.7135 H   0  0  0  0  0  0  0  0  0  0  0  0
   17.9946   33.1810   62.9561 H   0  0  0  0  0  0  0  0  0  0  0  0
   15.9578   32.8853   61.6006 H   0  0  0  0  0  0  0  0  0  0  0  0
   16.7667   31.3131   61.7446 H   0  0  0  0  0  0  0  0  0  0  0  0
   16.7798   25.4111   54.8353 H   0  0  0  0  0  0  0  0  0  0  0  0
   18.0580   27.4413   54.3371 H   0  0  0  0  0  0  0  0  0  0  0  0
   17.0217   29.1406   58.1302 H   0  0  0  0  0  0  0  0  0  0  0  0
  1  2  1  0  0  0  0
  2  3  1  0  0  0  0
  3  4  1  0  0  0  0
  2  5  1  0  0  0  0
  5  6  4  0  0  0  0
  6  7  4  0  0  0  0
  7  8  4  0  0  0  0
  8  9  4  0  0  0  0
  5 10  4  0  0  0  0
  9 10  4  0  0  0  0
 10 11  1  0  0  0  0
 11 12  1  0  0  0  0
 12 13  1  0  0  0  0
 13 14  1  0  0  0  0
 11 15  2  0  0  0  0
 15 16  1  0  0  0  0
 16 17  1  0  0  0  0
 17 18  1  0  0  0  0
 17 19  1  0  0  0  0
 17 20  1  0  0  0  0
 20 21  1  0  0  0  0
 21 22  1  0  0  0  0
 22 23  1  0  0  0  0
 23 24  1  0  0  0  0
 24 25  1  0  0  0  0
 25 26  4  0  0  0  0
 26 27  1  0  0  0  0
 27 28  1  0  0  0  0
 28 29  4  0  0  0  0
 29 30  1  0  0  0  0
 30 31  1  0  0  0  0
 31 32  1  0  0  0  0
 31 33  1  0  0  0  0
 30 34  1  0  0  0  0
 34 35  4  0  0  0  0
 35 36  1  0  0  0  0
 36 37  1  0  0  0  0
 37 38  1  0  0  0  0
 38 39  1  0  0  0  0
 39 40  4  0  0  0  0
 40 41  1  0  0  0  0
 41 42  3  0  0  0  0
 42 43  1  0  0  0  0
 43 44  1  0  0  0  0
 44 45  1  0  0  0  0
 44 46  1  0  0  0  0
 43 47  1  0  0  0  0
 43 48  1  0  0  0  0
 40 49  2  0  0  0  0
 39 50  1  0  0  0  0
 36 51  1  0  0  0  0
 50 51  1  0  0  0  0
 35 52  2  0  0  0  0
 34 53  1  0  0  0  0
 29 54  2  0  0  0  0
 27 55  1  0  0  0  0
 55 56  1  0  0  0  0
 56 57  1  0  0  0  0
 57 58  1  0  0  0  0
 58 59  1  0  0  0  0
 59 60  1  0  0  0  0
 56 61  1  0  0  0  0
 60 61  1  0  0  0  0
 26 62  2  0  0  0  0
 25 63  1  0  0  0  0
 63 64  1  0  0  0  0
 23 65  1  0  0  0  0
 64 65  1  0  0  0  0
 22 66  2  0  0  0  0
 15 67  4  0  0  0  0
 12 68  1  0  0  0  0
 67 68  4  0  0  0  0
 68 69  4  0  0  0  0
 69 70  2  0  0  0  0
 58 71  1  0  0  0  0
 70 71  4  0  0  0  0
 67 72  4  0  0  0  0
 71 72  4  0  0  0  0
 36 73  1  0  0  0  0
  1 74  1  0  0  0  0
  1 75  1  0  0  0  0
  1 76  1  0  0  0  0
  2 77  1  0  0  0  0
  4 78  1  0  0  0  0
  4 79  1  0  0  0  0
  4 80  1  0  0  0  0
  7 81  1  0  0  0  0
  8 82  1  0  0  0  0
  9 83  1  0  0  0  0
 13 84  1  0  0  0  0
 13 85  1  0  0  0  0
 14 86  1  0  0  0  0
 14 87  1  0  0  0  0
 14 88  1  0  0  0  0
 16 89  1  0  0  0  0
 16 90  1  0  0  0  0
 18 91  1  0  0  0  0
 18 92  1  0  0  0  0
 18 93  1  0  0  0  0
 19 94  1  0  0  0  0
 19 95  1  0  0  0  0
 19 96  1  0  0  0  0
 20 97  1  0  0  0  0
 20 98  1  0  0  0  0
 23 99  1  0  0  0  0
 24100  1  0  0  0  0
 27101  1  0  0  0  0
 28102  1  0  0  0  0
 30103  1  0  0  0  0
 31104  1  0  0  0  0
 32105  1  0  0  0  0
 32106  1  0  0  0  0
 32107  1  0  0  0  0
 33108  1  0  0  0  0
 33109  1  0  0  0  0
 33110  1  0  0  0  0
 37111  1  0  0  0  0
 37112  1  0  0  0  0
 38113  1  0  0  0  0
 38114  1  0  0  0  0
 45115  1  0  0  0  0
 45116  1  0  0  0  0
 45117  1  0  0  0  0
 46118  1  0  0  0  0
 46119  1  0  0  0  0
 46120  1  0  0  0  0
 47121  1  0  0  0  0
 47122  1  0  0  0  0
 47123  1  0  0  0  0
 48124  1  0  0  0  0
 48125  1  0  0  0  0
 48126  1  0  0  0  0
 50127  1  0  0  0  0
 50128  1  0  0  0  0
 51129  1  0  0  0  0
 51130  1  0  0  0  0
 53131  1  0  0  0  0
 53132  1  0  0  0  0
 53133  1  0  0  0  0
 55134  1  0  0  0  0
 55135  1  0  0  0  0
 56136  1  0  0  0  0
 57137  1  0  0  0  0
 57138  1  0  0  0  0
 59139  1  0  0  0  0
 59140  1  0  0  0  0
 60141  1  0  0  0  0
 60142  1  0  0  0  0
 63143  1  0  0  0  0
 63144  1  0  0  0  0
 64145  1  0  0  0  0
 64146  1  0  0  0  0
 65147  1  0  0  0  0
 65148  1  0  0  0  0
 69149  1  0  0  0  0
 70150  1  0  0  0  0
 72151  1  0  0  0  0
M  END
