obj12
     RDKit          3D

151157  0  0  0  0  0  0  0  0999 V2000
   17.2753   22.4101   61.0910 C   0  0  0  0  0  0  0  0  0  0  0  0
   16.5301   23.6711   60.6429 C   0  0  2  0  0  0  0  0  0  0  0  0
   16.8454   24.7528   61.5332 O   0  0  0  0  0  0  0  0  0  0  0  0
   18.0466   25.4259   61.1842 C   0  0  0  0  0  0  0  0  0  0  0  0
   15.0149   23.4688   60.6268 C   0  0  0  0  0  0  0  0  0  0  0  0
   14.5042   22.5584   61.5091 N   0  0  0  0  0  0  0  0  0  0  0  0
   13.1692   22.3623   61.5226 C   0  0  0  0  0  0  0  0  0  0  0  0
   12.2906   23.0169   60.6839 C   0  0  0  0  0  0  0  0  0  0  0  0
   12.8107   23.9397   59.7847 C   0  0  0  0  0  0  0  0  0  0  0  0
   14.1874   24.1912   59.7472 C   0  0  0  0  0  0  0  0  0  0  0  0
   14.7050   25.1773   58.7903 C   0  0  0  0  0  0  0  0  0  0  0  0
   14.9602   24.8839   57.4654 N   0  0  0  0  0  0  0  0  0  0  0  0
   14.7094   23.6041   56.8130 C   0  0  0  0  0  0  0  0  0  0  0  0
   13.4124   23.6021   56.0215 C   0  0  0  0  0  0  0  0  0  0  0  0
   15.0675   26.5069   59.0056 C   0  0  0  0  0  0  0  0  0  0  0  0
   14.9365   27.2581   60.3100 C   0  0  0  0  0  0  0  0  0  0  0  0
   13.6822   28.1644   60.4843 C   0  0  0  0  0  0  0  0  0  0  0  0
   12.3735   27.4343   60.1418 C   0  0  0  0  0  0  0  0  0  0  0  0
   13.6129   28.5720   61.9770 C   0  0  0  0  0  0  0  0  0  0  0  0
   13.7740   29.4430   59.6267 C   0  0  0  0  0  0  0  0  0  0  0  0
   14.9131   30.2078   60.0471 O   0  0  0  0  0  0  0  0  0  0  0  0
   15.1537   31.3410   59.3340 C   0  0  0  0  0  0  0  0  0  0  0  0
   16.4204   32.0155   59.8645 C   0  0  1  0  0  0  0  0  0  0  0  0
   16.6618   33.2672   59.1290 N   0  0  0  0  0  0  0  0  0  0  0  0
   17.8940   33.8398   59.5116 N   0  0  0  0  0  0  0  0  0  0  0  0
   18.8929   34.2556   58.6236 C   0  0  0  0  0  0  0  0  0  0  0  0
   18.8284   33.7490   57.1576 C   0  0  1  0  0  0  0  0  0  0  0  0
   19.4274   34.7632   56.2947 N   0  0  0  0  0  0  0  0  0  0  0  0
   18.7703   35.9584   56.0727 C   0  0  0  0  0  0  0  0  0  0  0  0
   19.5072   36.8908   55.0858 C   0  0  2  0  0  0  0  0  0  0  0  0
   19.2546   38.3888   55.4051 C   0  0  0  0  0  0  0  0  0  0  0  0
   19.9022   39.3031   54.3585 C   0  0  0  0  0  0  0  0  0  0  0  0
   19.8138   38.7497   56.7903 C   0  0  0  0  0  0  0  0  0  0  0  0
   19.1400   36.4900   53.7015 N   0  0  0  0  0  0  0  0  0  0  0  0
   19.9167   35.4766   53.1240 C   0  0  0  0  0  0  0  0  0  0  0  0
   19.6759   35.1019   51.6427 C   0  0  0  0  0  0  0  0  0  0  0  0
   20.0389   36.2955   50.7400 C   0  0  0  0  0  0  0  0  0  0  0  0
   19.9632   35.9072   49.2667 C   0  0  0  0  0  0  0  0  0  0  0  0
   20.8051   34.7454   49.0328 N   0  0  0  0  0  0  0  0  0  0  0  0
   22.0774   34.9448   48.5045 C   0  0  0  0  0  0  0  0  0  0  0  0
   23.0451   33.8733   48.5976 C   0  0  0  0  0  0  0  0  0  0  0  0
   23.8795   33.0172   48.7213 C   0  0  0  0  0  0  0  0  0  0  0  0
   24.9263   31.9769   48.9035 C   0  0  0  0  0  0  0  0  0  0  0  0
   25.0824   31.7139   50.3597 N   0  0  0  0  0  0  0  0  0  0  0  0
   23.9289   31.0527   50.9776 C   0  0  0  0  0  0  0  0  0  0  0  0
   26.3044   30.9974   50.7270 C   0  0  0  0  0  0  0  0  0  0  0  0
   26.2232   32.5528   48.2856 C   0  0  0  0  0  0  0  0  0  0  0  0
   24.5217   30.7286   48.0907 C   0  0  0  0  0  0  0  0  0  0  0  0
   22.4396   35.9963   47.9885 O   0  0  0  0  0  0  0  0  0  0  0  0
   20.4139   33.5612   49.7869 C   0  0  0  0  0  0  0  0  0  0  0  0
   20.5052   33.8546   51.2778 C   0  0  0  0  0  0  0  0  0  0  0  0
   20.8184   34.9299   53.7723 O   0  0  0  0  0  0  0  0  0  0  0  0
   17.7420   36.6632   53.3070 C   0  0  0  0  0  0  0  0  0  0  0  0
   17.6732   36.2205   56.5594 O   0  0  0  0  0  0  0  0  0  0  0  0
   19.6144   32.4271   57.0815 C   0  0  0  0  0  0  0  0  0  0  0  0
   19.0735   31.4054   56.0684 C   0  0  1  0  0  0  0  0  0  0  0  0
   18.0059   30.4795   56.7074 C   0  0  0  0  0  0  0  0  0  0  0  0
   17.5331   29.5144   55.6991 N   0  0  0  0  0  0  0  0  0  0  0  0
   17.0019   30.2017   54.4984 C   0  0  0  0  0  0  0  0  0  0  0  0
   18.0786   31.1468   53.9343 C   0  0  0  0  0  0  0  0  0  0  0  0
   18.5479   32.0875   54.9152 O   0  0  0  0  0  0  0  0  0  0  0  0
   19.8637   34.9144   59.0174 O   0  0  0  0  0  0  0  0  0  0  0  0
   17.9268   34.2716   60.9136 C   0  0  0  0  0  0  0  0  0  0  0  0
   17.5656   33.1042   61.8357 C   0  0  0  0  0  0  0  0  0  0  0  0
   16.3119   32.3625   61.3553 C   0  0  0  0  0  0  0  0  0  0  0  0
   14.5115   31.7057   58.3584 O   0  0  0  0  0  0  0  0  0  0  0  0
   15.6778   26.9759   57.7900 C   0  0  0  0  0  0  0  0  0  0  0  0
   15.5679   25.9574   56.8452 C   0  0  0  0  0  0  0  0  0  0  0  0
   16.0483   26.1083   55.5383 C   0  0  0  0  0  0  0  0  0  0  0  0
   16.6764   27.3124   55.1993 C   0  0  0  0  0  0  0  0  0  0  0  0
   16.8374   28.3686   56.1041 C   0  0  0  0  0  0  0  0  0  0  0  0
   16.3359   28.1759   57.4050 C   0  0  0  0  0  0  0  0  0  0  0  0
   18.3630   34.7747   51.4131 F   0  0  0  0  0  0  0  0  0  0  0  0
   17.0863   22.1914   62.1487 H   0  0  0  0  0  0  0  0  0  0  0  0
   16.9848   21.5399   60.4934 H   0  0  0  0  0  0  0  0  0  0  0  0
   18.3573   22.5421   60.9912 H   0  0  0  0  0  0  0  0  0  0  0  0
   16.8650   23.9053   59.6241 H   0  0  0  0  0  0  0  0  0  0  0  0
   18.1902   26.2512   61.8872 H   0  0  0  0  0  0  0  0  0  0  0  0
   18.9077   24.7564   61.2576 H   0  0  0  0  0  0  0  0  0  0  0  0
   17.9785   25.8422   60.1743 H   0  0  0  0  0  0  0  0  0  0  0  0
   12.8170   21.6360   62.2495 H   0  0  0  0  0  0  0  0  0  0  0  0
   11.2265   22.8240   60.7344 H   0  0  0  0  0  0  0  0  0  0  0  0
   12.1384   24.4743   59.1180 H   0  0  0  0  0  0  0  0  0  0  0  0
   15.5614   23.3880   56.1589 H   0  0  0  0  0  0  0  0  0  0  0  0
   14.6952   22.8151   57.5701 H   0  0  0  0  0  0  0  0  0  0  0  0
   12.5513   23.8013   56.6669 H   0  0  0  0  0  0  0  0  0  0  0  0
   13.4228   24.3671   55.2378 H   0  0  0  0  0  0  0  0  0  0  0  0
   13.2610   22.6291   55.5433 H   0  0  0  0  0  0  0  0  0  0  0  0
   14.9379   26.5252   61.1261 H   0  0  0  0  0  0  0  0  0  0  0  0
   15.8492   27.8500   60.4634 H   0  0  0  0  0  0  0  0  0  0  0  0
   12.2451   26.5449   60.7658 H   0  0  0  0  0  0  0  0  0  0  0  0
   11.5059   28.0812   60.3212 H   0  0  0  0  0  0  0  0  0  0  0  0
   12.3388   27.1337   59.0902 H   0  0  0  0  0  0  0  0  0  0  0  0
   14.5469   29.0360   62.3133 H   0  0  0  0  0  0  0  0  0  0  0  0
   12.8014   29.2877   62.1541 H   0  0  0  0  0  0  0  0  0  0  0  0
   13.4288   27.7010   62.6170 H   0  0  0  0  0  0  0  0  0  0  0  0
   13.8559   29.1957   58.5635 H   0  0  0  0  0  0  0  0  0  0  0  0
   12.8767   30.0577   59.7663 H   0  0  0  0  0  0  0  0  0  0  0  0
   17.2510   31.3209   59.6835 H   0  0  0  0  0  0  0  0  0  0  0  0
   16.5112   33.1596   58.1267 H   0  0  0  0  0  0  0  0  0  0  0  0
   17.7965   33.6282   56.8288 H   0  0  0  0  0  0  0  0  0  0  0  0
   20.0598   34.4684   55.5518 H   0  0  0  0  0  0  0  0  0  0  0  0
   20.5859   36.7222   55.2173 H   0  0  0  0  0  0  0  0  0  0  0  0
   18.1786   38.5994   55.4259 H   0  0  0  0  0  0  0  0  0  0  0  0
   19.7380   40.3568   54.6116 H   0  0  0  0  0  0  0  0  0  0  0  0
   20.9833   39.1346   54.3006 H   0  0  0  0  0  0  0  0  0  0  0  0
   19.4778   39.1377   53.3641 H   0  0  0  0  0  0  0  0  0  0  0  0
   19.3089   38.1896   57.5844 H   0  0  0  0  0  0  0  0  0  0  0  0
   20.8872   38.5326   56.8532 H   0  0  0  0  0  0  0  0  0  0  0  0
   19.6733   39.8161   57.0022 H   0  0  0  0  0  0  0  0  0  0  0  0
   19.3658   37.1412   50.9124 H   0  0  0  0  0  0  0  0  0  0  0  0
   21.0537   36.6402   50.9798 H   0  0  0  0  0  0  0  0  0  0  0  0
   18.9366   35.6488   48.9839 H   0  0  0  0  0  0  0  0  0  0  0  0
   20.2730   36.7514   48.6423 H   0  0  0  0  0  0  0  0  0  0  0  0
   24.0395   31.0450   52.0685 H   0  0  0  0  0  0  0  0  0  0  0  0
   22.9933   31.5847   50.7772 H   0  0  0  0  0  0  0  0  0  0  0  0
   23.8162   30.0132   50.6480 H   0  0  0  0  0  0  0  0  0  0  0  0
   26.3473   30.8344   51.8107 H   0  0  0  0  0  0  0  0  0  0  0  0
   26.3792   30.0197   50.2411 H   0  0  0  0  0  0  0  0  0  0  0  0
   27.1991   31.5800   50.4902 H   0  0  0  0  0  0  0  0  0  0  0  0
   26.5822   33.4234   48.8485 H   0  0  0  0  0  0  0  0  0  0  0  0
   27.0277   31.8095   48.2481 H   0  0  0  0  0  0  0  0  0  0  0  0
   26.0551   32.8890   47.2546 H   0  0  0  0  0  0  0  0  0  0  0  0
   25.2154   29.8958   48.2526 H   0  0  0  0  0  0  0  0  0  0  0  0
   23.5115   30.3810   48.3391 H   0  0  0  0  0  0  0  0  0  0  0  0
   24.5196   30.9435   47.0133 H   0  0  0  0  0  0  0  0  0  0  0  0
   19.3841   33.3114   49.5052 H   0  0  0  0  0  0  0  0  0  0  0  0
   21.0328   32.6988   49.5269 H   0  0  0  0  0  0  0  0  0  0  0  0
   21.5581   34.0014   51.5502 H   0  0  0  0  0  0  0  0  0  0  0  0
   20.1370   32.9864   51.8369 H   0  0  0  0  0  0  0  0  0  0  0  0
   17.3362   37.5932   53.7093 H   0  0  0  0  0  0  0  0  0  0  0  0
   17.6363   36.7063   52.2232 H   0  0  0  0  0  0  0  0  0  0  0  0
   17.1638   35.8147   53.6824 H   0  0  0  0  0  0  0  0  0  0  0  0
   20.6530   32.6538   56.8004 H   0  0  0  0  0  0  0  0  0  0  0  0
   19.6810   31.9444   58.0655 H   0  0  0  0  0  0  0  0  0  0  0  0
   19.9161   30.7829   55.7374 H   0  0  0  0  0  0  0  0  0  0  0  0
   18.4608   29.9588   57.5585 H   0  0  0  0  0  0  0  0  0  0  0  0
   17.1584   31.0762   57.0611 H   0  0  0  0  0  0  0  0  0  0  0  0
   16.7075   29.5074   53.7056 H   0  0  0  0  0  0  0  0  0  0  0  0
   16.1168   30.7834   54.7854 H   0  0  0  0  0  0  0  0  0  0  0  0
   18.9359   30.5776   53.5559 H   0  0  0  0  0  0  0  0  0  0  0  0
   17.6649   31.7222   53.0997 H   0  0  0  0  0  0  0  0  0  0  0  0
   18.9141   34.6621   61.1807 H   0  0  0  0  0  0  0  0  0  0  0  0
   17.2056   35.0905   61.0248 H   0  0  0  0  0  0  0  0  0  0  0  0
   18.4033   32.3952   61.8536 H   0  0  0  0  0  0  0  0  0  0  0  0
   17.4236   33.4636   62.8605 H   0  0  0  0  0  0  0  0  0  0  0  0
   15.4261   32.9865   61.5345 H   0  0  0  0  0  0  0  0  0  0  0  0
   16.1791   31.4545   61.9549 H   0  0  0  0  0  0  0  0  0  0  0  0
   15.9681   25.3149   54.8037 H   0  0  0  0  0  0  0  0  0  0  0  0
   17.0928   27.3921   54.1981 H   0  0  0  0  0  0  0  0  0  0  0  0
   16.4414   28.9499   58.1535 H   0  0  0  0  0  0  0  0  0  0  0  0
  1  2  1  0
  2  3  1  0
  2  5  1  0
  3  4  1  0
  5  6  2  0
  5 10  1  0
  6  7  1  0
  7  8  2  0
  8  9  1  0
  9 10  2  0
 10 11  1  0
 11 12  1  0
 11 15  2  0
 12 13  1  0
 12 68  1  0
 13 14  1  0
 15 16  1  0
 15 67  1  0
 16 17  1  0
 17 18  1  0
 17 19  1  0
 17 20  1  0
 20 21  1  0
 21 22  1  0
 22 23  1  0
 22 66  2  0
 23 24  1  0
 23 65  1  0
 24 25  1  0
 25 26  1  0
 25 63  1  0
 26 27  1  0
 26 62  2  0
 27 28  1  0
 27 55  1  0
 28 29  1  0
 29 30  1  0
 29 54  2  0
 30 31  1  0
 30 34  1  0
 31 32  1  0
 31 33  1  0
 34 35  1  0
 34 53  1  0
 35 36  1  0
 35 52  2  0
 36 37  1  0
 36 51  1  0
 36 73  1  0
 37 38  1  0
 38 39  1  0
 39 40  1  0
 39 50  1  0
 40 41  1  0
 40 49  2  0
 42 43  1  0
 43 44  1  0
 43 47  1  0
 43 48  1  0
 44 45  1  0
 44 46  1  0
 50 51  1  0
 55 56  1  0
 56 57  1  0
 56 61  1  0
 57 58  1  0
 58 59  1  0
 58 71  1  0
 59 60  1  0
 60 61  1  0
 63 64  1  0
 64 65  1  0
 67 68  2  0
 67 72  1  0
 68 69  1  0
 69 70  2  0
 70 71  1  0
 71 72  2  0
  1 74  1  0
  1 75  1  0
  1 76  1  0
  2 77  1  6
  4 78  1  0
  4 79  1  0
  4 80  1  0
  7 81  1  0
  8 82  1  0
  9 83  1  0
 13 84  1  0
 13 85  1  0
 14 86  1  0
 14 87  1  0
 14 88  1  0
 16 89  1  0
 16 90  1  0
 18 91  1  0
 18 92  1  0
 18 93  1  0
 19 94  1  0
 19 95  1  0
 19 96  1  0
 20 97  1  0
 20 98  1  0
 23 99  1  1
 24100  1  0
 27101  1  6
 28102  1  0
 30103  1  6
 31104  1  0
 32105  1  0
 32106  1  0
 32107  1  0
 33108  1  0
 33109  1  0
 33110  1  0
 37111  1  0
 37112  1  0
 38113  1  0
 38114  1  0
 45115  1  0
 45116  1  0
 45117  1  0
 46118  1  0
 46119  1  0
 46120  1  0
 47121  1  0
 47122  1  0
 47123  1  0
 48124  1  0
 48125  1  0
 48126  1  0
 50127  1  0
 50128  1  0
 51129  1  0
 51130  1  0
 53131  1  0
 53132  1  0
 53133  1  0
 55134  1  0
 55135  1  0
 56136  1  6
 57137  1  0
 57138  1  0
 59139  1  0
 59140  1  0
 60141  1  0
 60142  1  0
 63143  1  0
 63144  1  0
 64145  1  0
 64146  1  0
 65147  1  0
 65148  1  0
 69149  1  0
 70150  1  0
 72151  1  0
 41 42  3  0
M  END
$$$$
