 energy: -221.281155721984 gnorm: 0.000364984836 xtb: 6.7.1 (edcfbbe)
          08172521003D

151157  0     0  0            999 V2000
    1.6217    6.6096   -8.4568 C   0  0  0  0  0  0  0  0  0  0  0  0
    1.6629    5.1894   -7.8949 C   0  0  0  0  0  0  0  0  0  0  0  0
    2.8498    4.4970   -8.2551 O   0  0  0  0  0  0  0  0  0  0  0  0
    3.9758    4.8312   -7.4876 C   0  0  0  0  0  0  0  0  0  0  0  0
    0.5116    4.3594   -8.4285 C   0  0  0  0  0  0  0  0  0  0  0  0
    0.0536    4.6737   -9.6281 N   0  0  0  0  0  0  0  0  0  0  0  0
   -0.9472    3.9837  -10.1415 C   0  0  0  0  0  0  0  0  0  0  0  0
   -1.5697    2.9418   -9.4726 C   0  0  0  0  0  0  0  0  0  0  0  0
   -1.1006    2.6083   -8.2142 C   0  0  0  0  0  0  0  0  0  0  0  0
   -0.0276    3.3098   -7.6714 C   0  0  0  0  0  0  0  0  0  0  0  0
    0.4877    2.9851   -6.3334 C   0  0  0  0  0  0  0  0  0  0  0  0
   -0.1603    3.4518   -5.2113 N   0  0  0  0  0  0  0  0  0  0  0  0
   -1.3622    4.2414   -5.1876 C   0  0  0  0  0  0  0  0  0  0  0  0
   -2.5981    3.3950   -4.8842 C   0  0  0  0  0  0  0  0  0  0  0  0
    1.6102    2.2759   -5.9769 C   0  0  0  0  0  0  0  0  0  0  0  0
    2.5722    1.6205   -6.9150 C   0  0  0  0  0  0  0  0  0  0  0  0
    2.3055    0.1259   -7.2100 C   0  0  0  0  0  0  0  0  0  0  0  0
    3.1663   -0.2981   -8.4025 C   0  0  0  0  0  0  0  0  0  0  0  0
    0.8334   -0.1184   -7.5359 C   0  0  0  0  0  0  0  0  0  0  0  0
    2.6710   -0.7335   -5.9956 C   0  0  0  0  0  0  0  0  0  0  0  0
    4.0814   -0.6585   -5.7623 O   0  0  0  0  0  0  0  0  0  0  0  0
    4.5354   -1.2516   -4.6689 C   0  0  0  0  0  0  0  0  0  0  0  0
    6.0366   -1.0655   -4.5029 C   0  0  0  0  0  0  0  0  0  0  0  0
    6.6034   -2.1427   -3.7105 N   0  0  0  0  0  0  0  0  0  0  0  0
    7.8733   -1.7709   -3.2646 N   0  0  0  0  0  0  0  0  0  0  0  0
    8.1365   -1.0430   -2.1551 C   0  0  0  0  0  0  0  0  0  0  0  0
    6.9470   -0.8010   -1.2038 C   0  0  0  0  0  0  0  0  0  0  0  0
    7.0608   -1.6711   -0.0551 N   0  0  0  0  0  0  0  0  0  0  0  0
    6.5369   -2.9047   -0.0742 C   0  0  0  0  0  0  0  0  0  0  0  0
    6.6144   -3.6113    1.2807 C   0  0  0  0  0  0  0  0  0  0  0  0
    6.6714   -5.1383    1.1417 C   0  0  0  0  0  0  0  0  0  0  0  0
    6.5264   -5.8089    2.5044 C   0  0  0  0  0  0  0  0  0  0  0  0
    8.0024   -5.5148    0.4934 C   0  0  0  0  0  0  0  0  0  0  0  0
    5.4761   -3.1328    2.0649 N   0  0  0  0  0  0  0  0  0  0  0  0
    5.7433   -2.2605    3.0527 C   0  0  0  0  0  0  0  0  0  0  0  0
    4.6177   -1.7876    3.9881 C   0  0  0  0  0  0  0  0  0  0  0  0
    4.4782   -2.8041    5.1280 C   0  0  0  0  0  0  0  0  0  0  0  0
    3.4599   -2.3056    6.1547 C   0  0  0  0  0  0  0  0  0  0  0  0
    3.8177   -0.9899    6.6259 N   0  0  0  0  0  0  0  0  0  0  0  0
    4.1014   -0.7910    7.9378 C   0  0  0  0  0  0  0  0  0  0  0  0
    4.4470    0.5657    8.2874 C   0  0  0  0  0  0  0  0  0  0  0  0
    4.6912    1.6483    8.7557 C   0  0  0  0  0  0  0  0  0  0  0  0
    5.1295    2.9712    9.1988 C   0  0  0  0  0  0  0  0  0  0  0  0
    6.5558    3.1772    8.8936 N   0  0  0  0  0  0  0  0  0  0  0  0
    6.8653    3.1250    7.4773 C   0  0  0  0  0  0  0  0  0  0  0  0
    7.4426    2.2941    9.6306 C   0  0  0  0  0  0  0  0  0  0  0  0
    4.8892    3.0893   10.7117 C   0  0  0  0  0  0  0  0  0  0  0  0
    4.2847    4.0447    8.4921 C   0  0  0  0  0  0  0  0  0  0  0  0
    4.0559   -1.6777    8.7713 O   0  0  0  0  0  0  0  0  0  0  0  0
    3.9164    0.0095    5.5933 C   0  0  0  0  0  0  0  0  0  0  0  0
    4.9559   -0.4045    4.5497 C   0  0  0  0  0  0  0  0  0  0  0  0
    6.8830   -1.9027    3.3166 O   0  0  0  0  0  0  0  0  0  0  0  0
    4.1588   -3.4335    1.5445 C   0  0  0  0  0  0  0  0  0  0  0  0
    5.9975   -3.3870   -1.0544 O   0  0  0  0  0  0  0  0  0  0  0  0
    6.8998    0.6707   -0.7911 C   0  0  0  0  0  0  0  0  0  0  0  0
    5.4857    1.1389   -0.4368 C   0  0  0  0  0  0  0  0  0  0  0  0
    4.5639    1.1862   -1.6671 C   0  0  0  0  0  0  0  0  0  0  0  0
    3.2518    1.6373   -1.2564 N   0  0  0  0  0  0  0  0  0  0  0  0
    2.7173    0.7259   -0.2584 C   0  0  0  0  0  0  0  0  0  0  0  0
    3.6655    0.7033    0.9378 C   0  0  0  0  0  0  0  0  0  0  0  0
    4.9580    0.2865    0.5606 O   0  0  0  0  0  0  0  0  0  0  0  0
    9.2551   -0.6437   -1.8890 O   0  0  0  0  0  0  0  0  0  0  0  0
    8.8000   -1.7904   -4.3815 C   0  0  0  0  0  0  0  0  0  0  0  0
    8.3239   -0.7889   -5.4422 C   0  0  0  0  0  0  0  0  0  0  0  0
    6.8523   -1.0261   -5.7993 C   0  0  0  0  0  0  0  0  0  0  0  0
    3.8459   -1.8105   -3.8553 O   0  0  0  0  0  0  0  0  0  0  0  0
    1.6725    2.3174   -4.5500 C   0  0  0  0  0  0  0  0  0  0  0  0
    0.5456    3.0501   -4.1106 C   0  0  0  0  0  0  0  0  0  0  0  0
    0.3190    3.2808   -2.7589 C   0  0  0  0  0  0  0  0  0  0  0  0
    1.2260    2.7789   -1.8574 C   0  0  0  0  0  0  0  0  0  0  0  0
    2.3601    2.0503   -2.2657 C   0  0  0  0  0  0  0  0  0  0  0  0
    2.5853    1.8272   -3.6130 C   0  0  0  0  0  0  0  0  0  0  0  0
    3.3862   -1.6806    3.3468 F   0  0  0  0  0  0  0  0  0  0  0  0
    0.6769    7.0783   -8.1962 H   0  0  0  0  0  0  0  0  0  0  0  0
    2.4341    7.2059   -8.0496 H   0  0  0  0  0  0  0  0  0  0  0  0
    1.7080    6.5671   -9.5378 H   0  0  0  0  0  0  0  0  0  0  0  0
    1.5932    5.2220   -6.7937 H   0  0  0  0  0  0  0  0  0  0  0  0
    3.7879    4.6661   -6.4188 H   0  0  0  0  0  0  0  0  0  0  0  0
    4.7752    4.1720   -7.8209 H   0  0  0  0  0  0  0  0  0  0  0  0
    4.2848    5.8713   -7.6378 H   0  0  0  0  0  0  0  0  0  0  0  0
   -1.2671    4.2918  -11.1281 H   0  0  0  0  0  0  0  0  0  0  0  0
   -2.3958    2.4101   -9.9185 H   0  0  0  0  0  0  0  0  0  0  0  0
   -1.5565    1.8050   -7.6530 H   0  0  0  0  0  0  0  0  0  0  0  0
   -1.2514    5.0172   -4.4230 H   0  0  0  0  0  0  0  0  0  0  0  0
   -1.4741    4.7308   -6.1595 H   0  0  0  0  0  0  0  0  0  0  0  0
   -2.4738    2.8729   -3.9387 H   0  0  0  0  0  0  0  0  0  0  0  0
   -3.4778    4.0299   -4.8224 H   0  0  0  0  0  0  0  0  0  0  0  0
   -2.7563    2.6579   -5.6671 H   0  0  0  0  0  0  0  0  0  0  0  0
    2.5463    2.1636   -7.8613 H   0  0  0  0  0  0  0  0  0  0  0  0
    3.5817    1.7037   -6.5068 H   0  0  0  0  0  0  0  0  0  0  0  0
    4.2176   -0.1194   -8.1946 H   0  0  0  0  0  0  0  0  0  0  0  0
    3.0322   -1.3572   -8.6118 H   0  0  0  0  0  0  0  0  0  0  0  0
    2.8859    0.2678   -9.2874 H   0  0  0  0  0  0  0  0  0  0  0  0
    0.2065    0.1309   -6.6833 H   0  0  0  0  0  0  0  0  0  0  0  0
    0.5369    0.4950   -8.3825 H   0  0  0  0  0  0  0  0  0  0  0  0
    0.6683   -1.1630   -7.7911 H   0  0  0  0  0  0  0  0  0  0  0  0
    2.1403   -0.3944   -5.1003 H   0  0  0  0  0  0  0  0  0  0  0  0
    2.4082   -1.7828   -6.1697 H   0  0  0  0  0  0  0  0  0  0  0  0
    6.1498   -0.0837   -3.9948 H   0  0  0  0  0  0  0  0  0  0  0  0
    6.0134   -2.5230   -2.9722 H   0  0  0  0  0  0  0  0  0  0  0  0
    6.0106   -1.0780   -1.6932 H   0  0  0  0  0  0  0  0  0  0  0  0
    7.4787   -1.3050    0.7865 H   0  0  0  0  0  0  0  0  0  0  0  0
    7.5084   -3.2763    1.8164 H   0  0  0  0  0  0  0  0  0  0  0  0
    5.8687   -5.4736    0.4785 H   0  0  0  0  0  0  0  0  0  0  0  0
    5.5521   -5.6054    2.9411 H   0  0  0  0  0  0  0  0  0  0  0  0
    6.6381   -6.8857    2.4048 H   0  0  0  0  0  0  0  0  0  0  0  0
    7.2915   -5.4440    3.1866 H   0  0  0  0  0  0  0  0  0  0  0  0
    8.0613   -6.5918    0.3573 H   0  0  0  0  0  0  0  0  0  0  0  0
    8.0977   -5.0408   -0.4801 H   0  0  0  0  0  0  0  0  0  0  0  0
    8.8358   -5.1997    1.1180 H   0  0  0  0  0  0  0  0  0  0  0  0
    4.1569   -3.7680    4.7309 H   0  0  0  0  0  0  0  0  0  0  0  0
    5.4565   -2.9265    5.5942 H   0  0  0  0  0  0  0  0  0  0  0  0
    2.4662   -2.2630    5.6922 H   0  0  0  0  0  0  0  0  0  0  0  0
    3.4281   -2.9718    7.0192 H   0  0  0  0  0  0  0  0  0  0  0  0
    6.6505    2.1455    7.0237 H   0  0  0  0  0  0  0  0  0  0  0  0
    6.3127    3.8922    6.9414 H   0  0  0  0  0  0  0  0  0  0  0  0
    7.9271    3.3335    7.3534 H   0  0  0  0  0  0  0  0  0  0  0  0
    7.3687    2.4929   10.6965 H   0  0  0  0  0  0  0  0  0  0  0  0
    7.2377    1.2296    9.4483 H   0  0  0  0  0  0  0  0  0  0  0  0
    8.4659    2.5050    9.3235 H   0  0  0  0  0  0  0  0  0  0  0  0
    5.2745    2.2246   11.2442 H   0  0  0  0  0  0  0  0  0  0  0  0
    5.3695    3.9901   11.0849 H   0  0  0  0  0  0  0  0  0  0  0  0
    3.8214    3.1499   10.9077 H   0  0  0  0  0  0  0  0  0  0  0  0
    3.2706    4.0289    8.8835 H   0  0  0  0  0  0  0  0  0  0  0  0
    4.7214    5.0224    8.6778 H   0  0  0  0  0  0  0  0  0  0  0  0
    4.2289    3.8741    7.4203 H   0  0  0  0  0  0  0  0  0  0  0  0
    2.9384    0.1154    5.1060 H   0  0  0  0  0  0  0  0  0  0  0  0
    4.1903    0.9659    6.0422 H   0  0  0  0  0  0  0  0  0  0  0  0
    5.9509   -0.4528    4.9910 H   0  0  0  0  0  0  0  0  0  0  0  0
    4.9753    0.3163    3.7311 H   0  0  0  0  0  0  0  0  0  0  0  0
    3.5178   -3.8693    2.3108 H   0  0  0  0  0  0  0  0  0  0  0  0
    3.6807   -2.5359    1.1499 H   0  0  0  0  0  0  0  0  0  0  0  0
    4.2628   -4.1411    0.7275 H   0  0  0  0  0  0  0  0  0  0  0  0
    7.5578    0.8166    0.0665 H   0  0  0  0  0  0  0  0  0  0  0  0
    7.2784    1.2919   -1.6047 H   0  0  0  0  0  0  0  0  0  0  0  0
    5.5413    2.1650   -0.0309 H   0  0  0  0  0  0  0  0  0  0  0  0
    4.9757    1.8988   -2.3854 H   0  0  0  0  0  0  0  0  0  0  0  0
    4.5072    0.1869   -2.1277 H   0  0  0  0  0  0  0  0  0  0  0  0
    1.7292    1.0554    0.0594 H   0  0  0  0  0  0  0  0  0  0  0  0
    2.6347   -0.2946   -0.6701 H   0  0  0  0  0  0  0  0  0  0  0  0
    3.7161    1.7118    1.3779 H   0  0  0  0  0  0  0  0  0  0  0  0
    3.3173   -0.0059    1.6881 H   0  0  0  0  0  0  0  0  0  0  0  0
    9.7900   -1.5282   -4.0091 H   0  0  0  0  0  0  0  0  0  0  0  0
    8.8067   -2.8033   -4.7887 H   0  0  0  0  0  0  0  0  0  0  0  0
    8.4416    0.2226   -5.0454 H   0  0  0  0  0  0  0  0  0  0  0  0
    8.9452   -0.8783   -6.3332 H   0  0  0  0  0  0  0  0  0  0  0  0
    6.7433   -1.9871   -6.3028 H   0  0  0  0  0  0  0  0  0  0  0  0
    6.4882   -0.2390   -6.4591 H   0  0  0  0  0  0  0  0  0  0  0  0
   -0.5342    3.8482   -2.4182 H   0  0  0  0  0  0  0  0  0  0  0  0
    1.0845    2.9665   -0.8042 H   0  0  0  0  0  0  0  0  0  0  0  0
    3.4542    1.2873   -3.9529 H   0  0  0  0  0  0  0  0  0  0  0  0
  1  2  1  0  0  0  0
  2  3  1  0  0  0  0
  2  5  1  0  0  0  0
  3  4  1  0  0  0  0
  5  6  2  0  0  0  0
  5 10  1  0  0  0  0
  6  7  1  0  0  0  0
  7  8  2  0  0  0  0
  8  9  1  0  0  0  0
  9 10  2  0  0  0  0
 10 11  1  0  0  0  0
 11 12  1  0  0  0  0
 11 15  2  0  0  0  0
 12 13  1  0  0  0  0
 12 68  1  0  0  0  0
 13 14  1  0  0  0  0
 15 16  1  0  0  0  0
 15 67  1  0  0  0  0
 16 17  1  0  0  0  0
 17 18  1  0  0  0  0
 17 19  1  0  0  0  0
 17 20  1  0  0  0  0
 20 21  1  0  0  0  0
 21 22  1  0  0  0  0
 22 23  1  0  0  0  0
 22 66  2  0  0  0  0
 23 24  1  0  0  0  0
 23 65  1  0  0  0  0
 24 25  1  0  0  0  0
 25 26  1  0  0  0  0
 25 63  1  0  0  0  0
 26 27  1  0  0  0  0
 26 62  2  0  0  0  0
 27 28  1  0  0  0  0
 27 55  1  0  0  0  0
 28 29  1  0  0  0  0
 29 30  1  0  0  0  0
 29 54  2  0  0  0  0
 30 31  1  0  0  0  0
 30 34  1  0  0  0  0
 31 32  1  0  0  0  0
 31 33  1  0  0  0  0
 34 35  1  0  0  0  0
 34 53  1  0  0  0  0
 35 36  1  0  0  0  0
 35 52  2  0  0  0  0
 36 37  1  0  0  0  0
 36 51  1  0  0  0  0
 36 73  1  0  0  0  0
 37 38  1  0  0  0  0
 38 39  1  0  0  0  0
 39 40  1  0  0  0  0
 39 50  1  0  0  0  0
 40 41  1  0  0  0  0
 40 49  2  0  0  0  0
 42 43  1  0  0  0  0
 43 44  1  0  0  0  0
 43 47  1  0  0  0  0
 43 48  1  0  0  0  0
 44 45  1  0  0  0  0
 44 46  1  0  0  0  0
 50 51  1  0  0  0  0
 55 56  1  0  0  0  0
 56 57  1  0  0  0  0
 56 61  1  0  0  0  0
 57 58  1  0  0  0  0
 58 59  1  0  0  0  0
 58 71  1  0  0  0  0
 59 60  1  0  0  0  0
 60 61  1  0  0  0  0
 63 64  1  0  0  0  0
 64 65  1  0  0  0  0
 67 68  2  0  0  0  0
 67 72  1  0  0  0  0
 68 69  1  0  0  0  0
 69 70  2  0  0  0  0
 70 71  1  0  0  0  0
 71 72  2  0  0  0  0
  1 74  1  0  0  0  0
  1 75  1  0  0  0  0
  1 76  1  0  0  0  0
  2 77  1  0  0  0  0
  4 78  1  0  0  0  0
  4 79  1  0  0  0  0
  4 80  1  0  0  0  0
  7 81  1  0  0  0  0
  8 82  1  0  0  0  0
  9 83  1  0  0  0  0
 13 84  1  0  0  0  0
 13 85  1  0  0  0  0
 14 86  1  0  0  0  0
 14 87  1  0  0  0  0
 14 88  1  0  0  0  0
 16 89  1  0  0  0  0
 16 90  1  0  0  0  0
 18 91  1  0  0  0  0
 18 92  1  0  0  0  0
 18 93  1  0  0  0  0
 19 94  1  0  0  0  0
 19 95  1  0  0  0  0
 19 96  1  0  0  0  0
 20 97  1  0  0  0  0
 20 98  1  0  0  0  0
 23 99  1  0  0  0  0
 24100  1  0  0  0  0
 27101  1  0  0  0  0
 28102  1  0  0  0  0
 30103  1  0  0  0  0
 31104  1  0  0  0  0
 32105  1  0  0  0  0
 32106  1  0  0  0  0
 32107  1  0  0  0  0
 33108  1  0  0  0  0
 33109  1  0  0  0  0
 33110  1  0  0  0  0
 37111  1  0  0  0  0
 37112  1  0  0  0  0
 38113  1  0  0  0  0
 38114  1  0  0  0  0
 45115  1  0  0  0  0
 45116  1  0  0  0  0
 45117  1  0  0  0  0
 46118  1  0  0  0  0
 46119  1  0  0  0  0
 46120  1  0  0  0  0
 47121  1  0  0  0  0
 47122  1  0  0  0  0
 47123  1  0  0  0  0
 48124  1  0  0  0  0
 48125  1  0  0  0  0
 48126  1  0  0  0  0
 50127  1  0  0  0  0
 50128  1  0  0  0  0
 51129  1  0  0  0  0
 51130  1  0  0  0  0
 53131  1  0  0  0  0
 53132  1  0  0  0  0
 53133  1  0  0  0  0
 55134  1  0  0  0  0
 55135  1  0  0  0  0
 56136  1  0  0  0  0
 57137  1  0  0  0  0
 57138  1  0  0  0  0
 59139  1  0  0  0  0
 59140  1  0  0  0  0
 60141  1  0  0  0  0
 60142  1  0  0  0  0
 63143  1  0  0  0  0
 63144  1  0  0  0  0
 64145  1  0  0  0  0
 64146  1  0  0  0  0
 65147  1  0  0  0  0
 65148  1  0  0  0  0
 69149  1  0  0  0  0
 70150  1  0  0  0  0
 72151  1  0  0  0  0
 41 42  3  0  0  0  0
M  END
$$$$
