 energy: -221.269681346576 gnorm: 0.000354720681 xtb: 6.7.1 (edcfbbe)
          08182520173D

151157  0     0  0            999 V2000
   -0.6645   15.6817  -10.9234 C   0  0  0  0  0  0  0  0  0  0  0  0
   -0.0335   14.6416  -11.8575 C   0  0  0  0  0  0  0  0  0  0  0  0
   -0.9633   13.6784  -12.3193 O   0  0  0  0  0  0  0  0  0  0  0  0
   -1.9736   14.1886  -13.1489 C   0  0  0  0  0  0  0  0  0  0  0  0
    1.0930   13.9010  -11.1703 C   0  0  0  0  0  0  0  0  0  0  0  0
    2.3069   14.2804  -11.5421 N   0  0  0  0  0  0  0  0  0  0  0  0
    3.3637   13.6678  -11.0416 C   0  0  0  0  0  0  0  0  0  0  0  0
    3.2713   12.6080  -10.1545 C   0  0  0  0  0  0  0  0  0  0  0  0
    2.0073   12.2154   -9.7490 C   0  0  0  0  0  0  0  0  0  0  0  0
    0.8827   12.8790  -10.2362 C   0  0  0  0  0  0  0  0  0  0  0  0
   -0.4557   12.4651   -9.7895 C   0  0  0  0  0  0  0  0  0  0  0  0
   -1.1256   11.4800  -10.4734 N   0  0  0  0  0  0  0  0  0  0  0  0
   -0.6353   10.7532  -11.6123 C   0  0  0  0  0  0  0  0  0  0  0  0
   -0.0157    9.4163  -11.2058 C   0  0  0  0  0  0  0  0  0  0  0  0
   -1.2122   12.9062   -8.7272 C   0  0  0  0  0  0  0  0  0  0  0  0
   -0.9133   13.9459   -7.6909 C   0  0  0  0  0  0  0  0  0  0  0  0
    0.0257   13.5351   -6.5206 C   0  0  0  0  0  0  0  0  0  0  0  0
   -0.4013   14.2892   -5.2572 C   0  0  0  0  0  0  0  0  0  0  0  0
    1.4675   13.9357   -6.8519 C   0  0  0  0  0  0  0  0  0  0  0  0
    0.0053   12.0211   -6.2527 C   0  0  0  0  0  0  0  0  0  0  0  0
   -1.0138   11.6592   -5.3135 O   0  0  0  0  0  0  0  0  0  0  0  0
   -0.8549   10.4983   -4.7114 C   0  0  0  0  0  0  0  0  0  0  0  0
   -1.8996   10.2436   -3.6312 C   0  0  0  0  0  0  0  0  0  0  0  0
   -2.3887    8.8839   -3.8368 N   0  0  0  0  0  0  0  0  0  0  0  0
   -3.1393    8.3965   -2.7645 N   0  0  0  0  0  0  0  0  0  0  0  0
   -4.4331    8.0461   -2.9277 C   0  0  0  0  0  0  0  0  0  0  0  0
   -5.0093    8.3831   -4.2995 C   0  0  0  0  0  0  0  0  0  0  0  0
   -6.0791    7.4702   -4.6184 N   0  0  0  0  0  0  0  0  0  0  0  0
   -6.0699    6.7606   -5.7633 C   0  0  0  0  0  0  0  0  0  0  0  0
   -7.1645    5.6939   -5.8524 C   0  0  0  0  0  0  0  0  0  0  0  0
   -6.5319    4.2972   -5.6619 C   0  0  0  0  0  0  0  0  0  0  0  0
   -7.5845    3.2077   -5.8484 C   0  0  0  0  0  0  0  0  0  0  0  0
   -5.9097    4.2014   -4.2704 C   0  0  0  0  0  0  0  0  0  0  0  0
   -7.9105    5.7974   -7.1014 N   0  0  0  0  0  0  0  0  0  0  0  0
   -9.2442    5.9514   -7.0038 C   0  0  0  0  0  0  0  0  0  0  0  0
  -10.0978    5.9679   -8.2869 C   0  0  0  0  0  0  0  0  0  0  0  0
  -11.4238    6.6897   -8.0295 C   0  0  0  0  0  0  0  0  0  0  0  0
  -12.3295    6.6012   -9.2604 C   0  0  0  0  0  0  0  0  0  0  0  0
  -12.5185    5.2281   -9.6536 N   0  0  0  0  0  0  0  0  0  0  0  0
  -13.7092    4.5858   -9.7159 C   0  0  0  0  0  0  0  0  0  0  0  0
  -14.8654    5.4006   -9.4281 C   0  0  0  0  0  0  0  0  0  0  0  0
  -15.9320    5.9224   -9.2322 C   0  0  0  0  0  0  0  0  0  0  0  0
  -17.2026    6.6199   -9.0476 C   0  0  0  0  0  0  0  0  0  0  0  0
  -17.2924    7.0304   -7.6419 N   0  0  0  0  0  0  0  0  0  0  0  0
  -17.1465    5.9398   -6.6995 C   0  0  0  0  0  0  0  0  0  0  0  0
  -18.4430    7.8385   -7.3040 C   0  0  0  0  0  0  0  0  0  0  0  0
  -18.3268    5.6739   -9.5166 C   0  0  0  0  0  0  0  0  0  0  0  0
  -17.1551    7.8589   -9.9584 C   0  0  0  0  0  0  0  0  0  0  0  0
  -13.8190    3.4097  -10.0149 O   0  0  0  0  0  0  0  0  0  0  0  0
  -11.2997    4.5127   -9.9402 C   0  0  0  0  0  0  0  0  0  0  0  0
  -10.3768    4.5233   -8.7216 C   0  0  0  0  0  0  0  0  0  0  0  0
   -9.8236    6.0042   -5.9289 O   0  0  0  0  0  0  0  0  0  0  0  0
   -7.1630    5.7685   -8.3412 C   0  0  0  0  0  0  0  0  0  0  0  0
   -5.2488    6.9527   -6.6395 O   0  0  0  0  0  0  0  0  0  0  0  0
   -5.4893    9.8460   -4.2423 C   0  0  0  0  0  0  0  0  0  0  0  0
   -5.1008   10.6353   -5.4987 C   0  0  0  0  0  0  0  0  0  0  0  0
   -6.0009   10.3064   -6.7036 C   0  0  0  0  0  0  0  0  0  0  0  0
   -5.9036   11.3522   -7.7003 N   0  0  0  0  0  0  0  0  0  0  0  0
   -6.4065   12.6133   -7.1799 C   0  0  0  0  0  0  0  0  0  0  0  0
   -6.2381   12.7190   -5.6505 C   0  0  0  0  0  0  0  0  0  0  0  0
   -5.0867   12.0324   -5.2162 O   0  0  0  0  0  0  0  0  0  0  0  0
   -5.1005    7.5446   -2.0440 O   0  0  0  0  0  0  0  0  0  0  0  0
   -2.5091    8.4295   -1.4591 C   0  0  0  0  0  0  0  0  0  0  0  0
   -2.1184    9.8755   -1.1493 C   0  0  0  0  0  0  0  0  0  0  0  0
   -1.2140   10.4094   -2.2597 C   0  0  0  0  0  0  0  0  0  0  0  0
    0.0389    9.7187   -4.9358 O   0  0  0  0  0  0  0  0  0  0  0  0
   -2.4387   12.1729   -8.7844 C   0  0  0  0  0  0  0  0  0  0  0  0
   -2.3394   11.2856   -9.8803 C   0  0  0  0  0  0  0  0  0  0  0  0
   -3.3737   10.4122  -10.1998 C   0  0  0  0  0  0  0  0  0  0  0  0
   -4.5168   10.4671   -9.4388 C   0  0  0  0  0  0  0  0  0  0  0  0
   -4.6494   11.3695   -8.3704 C   0  0  0  0  0  0  0  0  0  0  0  0
   -3.6086   12.2094   -8.0260 C   0  0  0  0  0  0  0  0  0  0  0  0
   -9.4582    6.6402   -9.3241 F   0  0  0  0  0  0  0  0  0  0  0  0
   -1.3152   15.1804  -10.2124 H   0  0  0  0  0  0  0  0  0  0  0  0
    0.1200   16.2135  -10.3919 H   0  0  0  0  0  0  0  0  0  0  0  0
   -1.2469   16.4037  -11.4905 H   0  0  0  0  0  0  0  0  0  0  0  0
    0.4136   15.1647  -12.7196 H   0  0  0  0  0  0  0  0  0  0  0  0
   -2.6839   14.8112  -12.5951 H   0  0  0  0  0  0  0  0  0  0  0  0
   -1.5511   14.7741  -13.9748 H   0  0  0  0  0  0  0  0  0  0  0  0
   -2.5003   13.3245  -13.5506 H   0  0  0  0  0  0  0  0  0  0  0  0
    4.3212   14.0362  -11.3851 H   0  0  0  0  0  0  0  0  0  0  0  0
    4.1551   12.1072   -9.7914 H   0  0  0  0  0  0  0  0  0  0  0  0
    1.8817   11.3943   -9.0558 H   0  0  0  0  0  0  0  0  0  0  0  0
   -1.4730   10.5823  -12.2936 H   0  0  0  0  0  0  0  0  0  0  0  0
    0.0993   11.3737  -12.1295 H   0  0  0  0  0  0  0  0  0  0  0  0
    0.8568    9.5752  -10.5766 H   0  0  0  0  0  0  0  0  0  0  0  0
   -0.7368    8.8195  -10.6519 H   0  0  0  0  0  0  0  0  0  0  0  0
    0.2915    8.8639  -12.0898 H   0  0  0  0  0  0  0  0  0  0  0  0
   -0.4715   14.8271   -8.1605 H   0  0  0  0  0  0  0  0  0  0  0  0
   -1.8718   14.2450   -7.2643 H   0  0  0  0  0  0  0  0  0  0  0  0
    0.2645   14.0524   -4.4296 H   0  0  0  0  0  0  0  0  0  0  0  0
   -0.3612   15.3613   -5.4351 H   0  0  0  0  0  0  0  0  0  0  0  0
   -1.4139   14.0181   -4.9717 H   0  0  0  0  0  0  0  0  0  0  0  0
    2.1343   13.6906   -6.0275 H   0  0  0  0  0  0  0  0  0  0  0  0
    1.8188   13.4261   -7.7433 H   0  0  0  0  0  0  0  0  0  0  0  0
    1.5275   15.0076   -7.0261 H   0  0  0  0  0  0  0  0  0  0  0  0
   -0.1695   11.4660   -7.1797 H   0  0  0  0  0  0  0  0  0  0  0  0
    0.9653   11.6944   -5.8373 H   0  0  0  0  0  0  0  0  0  0  0  0
   -2.7308   10.9453   -3.7394 H   0  0  0  0  0  0  0  0  0  0  0  0
   -1.5804    8.2770   -3.9938 H   0  0  0  0  0  0  0  0  0  0  0  0
   -4.2410    8.2677   -5.0685 H   0  0  0  0  0  0  0  0  0  0  0  0
   -6.6814    7.2183   -3.8472 H   0  0  0  0  0  0  0  0  0  0  0  0
   -7.9013    5.8520   -5.0586 H   0  0  0  0  0  0  0  0  0  0  0  0
   -5.7393    4.1640   -6.4056 H   0  0  0  0  0  0  0  0  0  0  0  0
   -8.4222    3.3744   -5.1753 H   0  0  0  0  0  0  0  0  0  0  0  0
   -7.9620    3.1965   -6.8675 H   0  0  0  0  0  0  0  0  0  0  0  0
   -7.1547    2.2324   -5.6335 H   0  0  0  0  0  0  0  0  0  0  0  0
   -6.6643    4.3557   -3.5023 H   0  0  0  0  0  0  0  0  0  0  0  0
   -5.4737    3.2157   -4.1262 H   0  0  0  0  0  0  0  0  0  0  0  0
   -5.1243    4.9415   -4.1371 H   0  0  0  0  0  0  0  0  0  0  0  0
  -11.8997    6.2318   -7.1633 H   0  0  0  0  0  0  0  0  0  0  0  0
  -11.2213    7.7360   -7.7975 H   0  0  0  0  0  0  0  0  0  0  0  0
  -13.3005    7.0508   -9.0458 H   0  0  0  0  0  0  0  0  0  0  0  0
  -11.8597    7.1459  -10.0897 H   0  0  0  0  0  0  0  0  0  0  0  0
  -16.9342    6.3626   -5.7168 H   0  0  0  0  0  0  0  0  0  0  0  0
  -18.0493    5.3160   -6.6150 H   0  0  0  0  0  0  0  0  0  0  0  0
  -16.3102    5.3093   -6.9939 H   0  0  0  0  0  0  0  0  0  0  0  0
  -18.3122    8.1944   -6.2819 H   0  0  0  0  0  0  0  0  0  0  0  0
  -18.5043    8.7053   -7.9561 H   0  0  0  0  0  0  0  0  0  0  0  0
  -19.3948    7.2868   -7.3498 H   0  0  0  0  0  0  0  0  0  0  0  0
  -18.3274    4.7585   -8.9299 H   0  0  0  0  0  0  0  0  0  0  0  0
  -19.2950    6.1605   -9.4222 H   0  0  0  0  0  0  0  0  0  0  0  0
  -18.1690    5.4101  -10.5592 H   0  0  0  0  0  0  0  0  0  0  0  0
  -16.4915    8.6057   -9.5298 H   0  0  0  0  0  0  0  0  0  0  0  0
  -16.7765    7.5748  -10.9377 H   0  0  0  0  0  0  0  0  0  0  0  0
  -18.1455    8.2871  -10.0879 H   0  0  0  0  0  0  0  0  0  0  0  0
  -11.5688    3.4897  -10.2110 H   0  0  0  0  0  0  0  0  0  0  0  0
  -10.7910    4.9909  -10.7862 H   0  0  0  0  0  0  0  0  0  0  0  0
   -9.4485    4.0071   -8.9678 H   0  0  0  0  0  0  0  0  0  0  0  0
  -10.8505    4.0075   -7.8853 H   0  0  0  0  0  0  0  0  0  0  0  0
   -6.1426    5.4709   -8.1245 H   0  0  0  0  0  0  0  0  0  0  0  0
   -7.5947    5.0652   -9.0517 H   0  0  0  0  0  0  0  0  0  0  0  0
   -7.1298    6.7572   -8.8005 H   0  0  0  0  0  0  0  0  0  0  0  0
   -6.5721    9.8613   -4.1025 H   0  0  0  0  0  0  0  0  0  0  0  0
   -5.0437   10.3512   -3.3826 H   0  0  0  0  0  0  0  0  0  0  0  0
   -4.0617   10.3971   -5.7596 H   0  0  0  0  0  0  0  0  0  0  0  0
   -5.6900    9.3557   -7.1369 H   0  0  0  0  0  0  0  0  0  0  0  0
   -7.0480   10.2251   -6.3942 H   0  0  0  0  0  0  0  0  0  0  0  0
   -5.8946   13.4323   -7.6860 H   0  0  0  0  0  0  0  0  0  0  0  0
   -7.4754   12.6771   -7.4250 H   0  0  0  0  0  0  0  0  0  0  0  0
   -6.0939   13.7564   -5.3419 H   0  0  0  0  0  0  0  0  0  0  0  0
   -7.1296   12.3280   -5.1399 H   0  0  0  0  0  0  0  0  0  0  0  0
   -3.2273    8.0394   -0.7376 H   0  0  0  0  0  0  0  0  0  0  0  0
   -1.6198    7.7885   -1.4699 H   0  0  0  0  0  0  0  0  0  0  0  0
   -3.0227   10.4843   -1.0854 H   0  0  0  0  0  0  0  0  0  0  0  0
   -1.6037    9.9235   -0.1894 H   0  0  0  0  0  0  0  0  0  0  0  0
   -0.2770    9.8453   -2.2703 H   0  0  0  0  0  0  0  0  0  0  0  0
   -0.9804   11.4613   -2.0925 H   0  0  0  0  0  0  0  0  0  0  0  0
   -3.2943    9.7204  -11.0247 H   0  0  0  0  0  0  0  0  0  0  0  0
   -5.3492    9.8172   -9.6592 H   0  0  0  0  0  0  0  0  0  0  0  0
   -3.6921   12.8730   -7.1786 H   0  0  0  0  0  0  0  0  0  0  0  0
  1  2  1  0  0  0  0
  2  3  1  0  0  0  0
  2  5  1  0  0  0  0
  3  4  1  0  0  0  0
  5  6  2  0  0  0  0
  5 10  1  0  0  0  0
  6  7  1  0  0  0  0
  7  8  2  0  0  0  0
  8  9  1  0  0  0  0
  9 10  2  0  0  0  0
 10 11  1  0  0  0  0
 11 12  1  0  0  0  0
 11 15  2  0  0  0  0
 12 13  1  0  0  0  0
 12 68  1  0  0  0  0
 13 14  1  0  0  0  0
 15 16  1  0  0  0  0
 15 67  1  0  0  0  0
 16 17  1  0  0  0  0
 17 18  1  0  0  0  0
 17 19  1  0  0  0  0
 17 20  1  0  0  0  0
 20 21  1  0  0  0  0
 21 22  1  0  0  0  0
 22 23  1  0  0  0  0
 22 66  2  0  0  0  0
 23 24  1  0  0  0  0
 23 65  1  0  0  0  0
 24 25  1  0  0  0  0
 25 26  1  0  0  0  0
 25 63  1  0  0  0  0
 26 27  1  0  0  0  0
 26 62  2  0  0  0  0
 27 28  1  0  0  0  0
 27 55  1  0  0  0  0
 28 29  1  0  0  0  0
 29 30  1  0  0  0  0
 29 54  2  0  0  0  0
 30 31  1  0  0  0  0
 30 34  1  0  0  0  0
 31 32  1  0  0  0  0
 31 33  1  0  0  0  0
 34 35  1  0  0  0  0
 34 53  1  0  0  0  0
 35 36  1  0  0  0  0
 35 52  2  0  0  0  0
 36 37  1  0  0  0  0
 36 51  1  0  0  0  0
 36 73  1  0  0  0  0
 37 38  1  0  0  0  0
 38 39  1  0  0  0  0
 39 40  1  0  0  0  0
 39 50  1  0  0  0  0
 40 41  1  0  0  0  0
 40 49  2  0  0  0  0
 42 43  1  0  0  0  0
 43 44  1  0  0  0  0
 43 47  1  0  0  0  0
 43 48  1  0  0  0  0
 44 45  1  0  0  0  0
 44 46  1  0  0  0  0
 50 51  1  0  0  0  0
 55 56  1  0  0  0  0
 56 57  1  0  0  0  0
 56 61  1  0  0  0  0
 57 58  1  0  0  0  0
 58 59  1  0  0  0  0
 58 71  1  0  0  0  0
 59 60  1  0  0  0  0
 60 61  1  0  0  0  0
 63 64  1  0  0  0  0
 64 65  1  0  0  0  0
 67 68  2  0  0  0  0
 67 72  1  0  0  0  0
 68 69  1  0  0  0  0
 69 70  2  0  0  0  0
 70 71  1  0  0  0  0
 71 72  2  0  0  0  0
 41 42  3  0  0  0  0
  1 74  1  0  0  0  0
  1 75  1  0  0  0  0
  1 76  1  0  0  0  0
  2 77  1  0  0  0  0
  4 78  1  0  0  0  0
  4 79  1  0  0  0  0
  4 80  1  0  0  0  0
  7 81  1  0  0  0  0
  8 82  1  0  0  0  0
  9 83  1  0  0  0  0
 13 84  1  0  0  0  0
 13 85  1  0  0  0  0
 14 86  1  0  0  0  0
 14 87  1  0  0  0  0
 14 88  1  0  0  0  0
 16 89  1  0  0  0  0
 16 90  1  0  0  0  0
 18 91  1  0  0  0  0
 18 92  1  0  0  0  0
 18 93  1  0  0  0  0
 19 94  1  0  0  0  0
 19 95  1  0  0  0  0
 19 96  1  0  0  0  0
 20 97  1  0  0  0  0
 20 98  1  0  0  0  0
 23 99  1  0  0  0  0
 24100  1  0  0  0  0
 27101  1  0  0  0  0
 28102  1  0  0  0  0
 30103  1  0  0  0  0
 31104  1  0  0  0  0
 32105  1  0  0  0  0
 32106  1  0  0  0  0
 32107  1  0  0  0  0
 33108  1  0  0  0  0
 33109  1  0  0  0  0
 33110  1  0  0  0  0
 37111  1  0  0  0  0
 37112  1  0  0  0  0
 38113  1  0  0  0  0
 38114  1  0  0  0  0
 45115  1  0  0  0  0
 45116  1  0  0  0  0
 45117  1  0  0  0  0
 46118  1  0  0  0  0
 46119  1  0  0  0  0
 46120  1  0  0  0  0
 47121  1  0  0  0  0
 47122  1  0  0  0  0
 47123  1  0  0  0  0
 48124  1  0  0  0  0
 48125  1  0  0  0  0
 48126  1  0  0  0  0
 50127  1  0  0  0  0
 50128  1  0  0  0  0
 51129  1  0  0  0  0
 51130  1  0  0  0  0
 53131  1  0  0  0  0
 53132  1  0  0  0  0
 53133  1  0  0  0  0
 55134  1  0  0  0  0
 55135  1  0  0  0  0
 56136  1  0  0  0  0
 57137  1  0  0  0  0
 57138  1  0  0  0  0
 59139  1  0  0  0  0
 59140  1  0  0  0  0
 60141  1  0  0  0  0
 60142  1  0  0  0  0
 63143  1  0  0  0  0
 63144  1  0  0  0  0
 64145  1  0  0  0  0
 64146  1  0  0  0  0
 65147  1  0  0  0  0
 65148  1  0  0  0  0
 69149  1  0  0  0  0
 70150  1  0  0  0  0
 72151  1  0  0  0  0
M  END
$$$$
