mol_bioactive_16
     RDKit          3D

151157  0  0  0  0  0  0  0  0999 V2000
    3.1208   13.0885   -7.4689 C   0  0  0  0  0  0  0  0  0  0  0  0
    2.8940   12.7720   -8.9440 C   0  0  2  0  0  0  0  0  0  0  0  0
    4.1749   12.3382   -9.4428 O   0  0  0  0  0  0  0  0  0  0  0  0
    4.1309   11.8007  -10.7542 C   0  0  0  0  0  0  0  0  0  0  0  0
    2.3652   14.0249   -9.6336 C   0  0  0  0  0  0  0  0  0  0  0  0
    3.3033   14.9663   -9.9563 N   0  0  0  0  0  0  0  0  0  0  0  0
    2.8963   16.1164  -10.5306 C   0  0  0  0  0  0  0  0  0  0  0  0
    1.5760   16.4045  -10.8007 C   0  0  0  0  0  0  0  0  0  0  0  0
    0.6207   15.4490  -10.4723 C   0  0  0  0  0  0  0  0  0  0  0  0
    0.9990   14.2311   -9.8804 C   0  0  0  0  0  0  0  0  0  0  0  0
   -0.0812   13.2700   -9.5977 C   0  0  0  0  0  0  0  0  0  0  0  0
   -0.4654   12.2860  -10.4916 N   0  0  0  0  0  0  0  0  0  0  0  0
    0.2498   11.8944  -11.7006 C   0  0  0  0  0  0  0  0  0  0  0  0
    0.8439   10.4964  -11.6060 C   0  0  0  0  0  0  0  0  0  0  0  0
   -1.0280   13.2920   -8.5660 C   0  0  0  0  0  0  0  0  0  0  0  0
   -0.9913   14.2141   -7.3655 C   0  0  0  0  0  0  0  0  0  0  0  0
   -0.9867   13.6012   -5.9253 C   0  0  0  0  0  0  0  0  0  0  0  0
   -2.4185   13.5175   -5.3452 C   0  0  0  0  0  0  0  0  0  0  0  0
   -0.2131   14.5844   -5.0097 C   0  0  0  0  0  0  0  0  0  0  0  0
   -0.3060   12.2112   -5.8323 C   0  0  0  0  0  0  0  0  0  0  0  0
   -0.5565   11.6633   -4.5217 O   0  0  0  0  0  0  0  0  0  0  0  0
   -0.4789   10.3026   -4.4416 C   0  0  0  0  0  0  0  0  0  0  0  0
   -1.3521    9.8230   -3.2799 C   0  0  1  0  0  0  0  0  0  0  0  0
   -2.1294    8.6436   -3.7146 N   0  0  0  0  0  0  0  0  0  0  0  0
   -3.0937    8.3063   -2.7288 N   0  0  0  0  0  0  0  0  0  0  0  0
   -4.4463    8.0490   -3.0063 C   0  0  0  0  0  0  0  0  0  0  0  0
   -4.9797    8.4335   -4.4140 C   0  0  1  0  0  0  0  0  0  0  0  0
   -6.2164    7.7076   -4.6794 N   0  0  0  0  0  0  0  0  0  0  0  0
   -6.1352    6.4084   -5.1416 C   0  0  0  0  0  0  0  0  0  0  0  0
   -7.4797    5.6514   -5.2107 C   0  0  2  0  0  0  0  0  0  0  0  0
   -7.2865    4.1410   -4.8996 C   0  0  0  0  0  0  0  0  0  0  0  0
   -8.5945    3.3558   -5.0589 C   0  0  0  0  0  0  0  0  0  0  0  0
   -6.7553    3.9357   -3.4743 C   0  0  0  0  0  0  0  0  0  0  0  0
   -8.1010    5.8647   -6.5463 N   0  0  0  0  0  0  0  0  0  0  0  0
   -9.3912    6.3972   -6.5937 C   0  0  0  0  0  0  0  0  0  0  0  0
  -10.0987    6.5260   -7.9624 C   0  0  0  0  0  0  0  0  0  0  0  0
  -11.3395    7.4312   -7.8516 C   0  0  0  0  0  0  0  0  0  0  0  0
  -12.1139    7.4559   -9.1672 C   0  0  0  0  0  0  0  0  0  0  0  0
  -12.4229    6.0967   -9.5967 N   0  0  0  0  0  0  0  0  0  0  0  0
  -13.6947    5.5426   -9.6465 C   0  0  0  0  0  0  0  0  0  0  0  0
  -14.8334    6.3662   -9.3084 C   0  0  0  0  0  0  0  0  0  0  0  0
  -15.8075    6.9981   -8.9966 C   0  0  0  0  0  0  0  0  0  0  0  0
  -17.0334    7.7189   -8.5811 C   0  0  0  0  0  0  0  0  0  0  0  0
  -16.7292    8.9768   -7.8432 N   0  0  0  0  0  0  0  0  0  0  0  0
  -15.9261    8.7888   -6.6309 C   0  0  0  0  0  0  0  0  0  0  0  0
  -16.1327   10.0288   -8.6681 C   0  0  0  0  0  0  0  0  0  0  0  0
  -17.8775    6.7732   -7.6929 C   0  0  0  0  0  0  0  0  0  0  0  0
  -17.8863    8.0013   -9.8412 C   0  0  0  0  0  0  0  0  0  0  0  0
  -13.9136    4.3728   -9.9450 O   0  0  0  0  0  0  0  0  0  0  0  0
  -11.2686    5.2294   -9.7733 C   0  0  0  0  0  0  0  0  0  0  0  0
  -10.5041    5.1269   -8.4587 C   0  0  0  0  0  0  0  0  0  0  0  0
   -9.9974    6.6810   -5.5561 O   0  0  0  0  0  0  0  0  0  0  0  0
   -7.2321    5.7256   -7.7165 C   0  0  0  0  0  0  0  0  0  0  0  0
   -5.0817    5.9328   -5.5641 O   0  0  0  0  0  0  0  0  0  0  0  0
   -5.1790    9.9518   -4.4923 C   0  0  0  0  0  0  0  0  0  0  0  0
   -5.5758   10.5112   -5.8669 C   0  0  1  0  0  0  0  0  0  0  0  0
   -4.9483    9.7800   -7.0740 C   0  0  0  0  0  0  0  0  0  0  0  0
   -5.2564   10.4864   -8.3410 N   0  0  0  0  0  0  0  0  0  0  0  0
   -6.4196   11.3938   -8.2576 C   0  0  0  0  0  0  0  0  0  0  0  0
   -7.4747   10.7745   -7.3162 C   0  0  0  0  0  0  0  0  0  0  0  0
   -7.0137   10.5721   -5.9651 O   0  0  0  0  0  0  0  0  0  0  0  0
   -5.2183    7.6029   -2.1494 O   0  0  0  0  0  0  0  0  0  0  0  0
   -2.5083    7.9021   -1.4428 C   0  0  0  0  0  0  0  0  0  0  0  0
   -1.5060    8.9490   -0.9383 C   0  0  0  0  0  0  0  0  0  0  0  0
   -0.5528    9.4320   -2.0416 C   0  0  0  0  0  0  0  0  0  0  0  0
    0.1033    9.5875   -5.2460 O   0  0  0  0  0  0  0  0  0  0  0  0
   -2.0782   12.3847   -8.9474 C   0  0  0  0  0  0  0  0  0  0  0  0
   -1.6881   11.7566  -10.1292 C   0  0  0  0  0  0  0  0  0  0  0  0
   -2.4874   10.7880  -10.7580 C   0  0  0  0  0  0  0  0  0  0  0  0
   -3.6819   10.4100  -10.1428 C   0  0  0  0  0  0  0  0  0  0  0  0
   -4.1144   11.0091   -8.9644 C   0  0  0  0  0  0  0  0  0  0  0  0
   -3.3367   12.0359   -8.4046 C   0  0  0  0  0  0  0  0  0  0  0  0
   -9.2800    7.1020   -8.8995 F   0  0  0  0  0  0  0  0  0  0  0  0
    3.3644   12.1741   -6.9162 H   0  0  0  0  0  0  0  0  0  0  0  0
    3.9723   13.7665   -7.3335 H   0  0  0  0  0  0  0  0  0  0  0  0
    2.2470   13.5552   -7.0094 H   0  0  0  0  0  0  0  0  0  0  0  0
    2.1900   11.9389   -9.0333 H   0  0  0  0  0  0  0  0  0  0  0  0
    3.5998   10.8450  -10.7490 H   0  0  0  0  0  0  0  0  0  0  0  0
    3.6716   12.4937  -11.4673 H   0  0  0  0  0  0  0  0  0  0  0  0
    5.1580   11.6123  -11.0776 H   0  0  0  0  0  0  0  0  0  0  0  0
    3.6883   16.8225  -10.7662 H   0  0  0  0  0  0  0  0  0  0  0  0
    1.2934   17.3440  -11.2595 H   0  0  0  0  0  0  0  0  0  0  0  0
   -0.4282   15.6510  -10.6817 H   0  0  0  0  0  0  0  0  0  0  0  0
   -0.4536   11.9644  -12.5388 H   0  0  0  0  0  0  0  0  0  0  0  0
    1.0457   12.6184  -11.8968 H   0  0  0  0  0  0  0  0  0  0  0  0
    1.3727   10.3482  -10.6608 H   0  0  0  0  0  0  0  0  0  0  0  0
    0.0715    9.7240  -11.6662 H   0  0  0  0  0  0  0  0  0  0  0  0
    1.5435   10.3251  -12.4296 H   0  0  0  0  0  0  0  0  0  0  0  0
   -0.0935   14.8390   -7.4658 H   0  0  0  0  0  0  0  0  0  0  0  0
   -1.8263   14.9227   -7.4643 H   0  0  0  0  0  0  0  0  0  0  0  0
   -2.4082   13.5019   -4.2490 H   0  0  0  0  0  0  0  0  0  0  0  0
   -3.0310   14.3743   -5.6443 H   0  0  0  0  0  0  0  0  0  0  0  0
   -2.9215   12.5992   -5.6499 H   0  0  0  0  0  0  0  0  0  0  0  0
   -0.2037   14.2495   -3.9667 H   0  0  0  0  0  0  0  0  0  0  0  0
    0.8314   14.6862   -5.3266 H   0  0  0  0  0  0  0  0  0  0  0  0
   -0.6667   15.5819   -5.0336 H   0  0  0  0  0  0  0  0  0  0  0  0
   -0.7189   11.5283   -6.5835 H   0  0  0  0  0  0  0  0  0  0  0  0
    0.7747   12.2815   -5.9741 H   0  0  0  0  0  0  0  0  0  0  0  0
   -2.0551   10.6319   -3.0392 H   0  0  0  0  0  0  0  0  0  0  0  0
   -2.5087    8.7899   -4.6475 H   0  0  0  0  0  0  0  0  0  0  0  0
   -4.2479    8.1020   -5.1532 H   0  0  0  0  0  0  0  0  0  0  0  0
   -7.0202    7.9448   -4.1059 H   0  0  0  0  0  0  0  0  0  0  0  0
   -8.1282    6.0640   -4.4289 H   0  0  0  0  0  0  0  0  0  0  0  0
   -6.5516    3.7092   -5.5909 H   0  0  0  0  0  0  0  0  0  0  0  0
   -9.3848    3.7699   -4.4227 H   0  0  0  0  0  0  0  0  0  0  0  0
   -8.9435    3.3718   -6.0959 H   0  0  0  0  0  0  0  0  0  0  0  0
   -8.4519    2.3052   -4.7829 H   0  0  0  0  0  0  0  0  0  0  0  0
   -7.4493    4.3395   -2.7302 H   0  0  0  0  0  0  0  0  0  0  0  0
   -6.6170    2.8706   -3.2638 H   0  0  0  0  0  0  0  0  0  0  0  0
   -5.7864    4.4223   -3.3320 H   0  0  0  0  0  0  0  0  0  0  0  0
  -12.0024    7.0754   -7.0540 H   0  0  0  0  0  0  0  0  0  0  0  0
  -11.0339    8.4526   -7.5944 H   0  0  0  0  0  0  0  0  0  0  0  0
  -13.0164    8.0617   -9.0572 H   0  0  0  0  0  0  0  0  0  0  0  0
  -11.5099    7.9189   -9.9571 H   0  0  0  0  0  0  0  0  0  0  0  0
  -16.4117    8.1205   -5.9156 H   0  0  0  0  0  0  0  0  0  0  0  0
  -14.9218    8.4092   -6.8455 H   0  0  0  0  0  0  0  0  0  0  0  0
  -15.8125    9.7424   -6.1021 H   0  0  0  0  0  0  0  0  0  0  0  0
  -15.9339   10.9249   -8.0669 H   0  0  0  0  0  0  0  0  0  0  0  0
  -15.1877    9.7204   -9.1275 H   0  0  0  0  0  0  0  0  0  0  0  0
  -16.8177   10.3616   -9.4540 H   0  0  0  0  0  0  0  0  0  0  0  0
  -17.3182    6.3938   -6.8301 H   0  0  0  0  0  0  0  0  0  0  0  0
  -18.7805    7.2745   -7.3230 H   0  0  0  0  0  0  0  0  0  0  0  0
  -18.2009    5.8870   -8.2547 H   0  0  0  0  0  0  0  0  0  0  0  0
  -18.7818    8.5844   -9.5932 H   0  0  0  0  0  0  0  0  0  0  0  0
  -17.3251    8.5415  -10.6126 H   0  0  0  0  0  0  0  0  0  0  0  0
  -18.2227    7.0676  -10.3111 H   0  0  0  0  0  0  0  0  0  0  0  0
  -11.5651    4.2293  -10.1048 H   0  0  0  0  0  0  0  0  0  0  0  0
  -10.6379    5.6619  -10.5589 H   0  0  0  0  0  0  0  0  0  0  0  0
   -9.6349    4.4804   -8.6111 H   0  0  0  0  0  0  0  0  0  0  0  0
  -11.1301    4.6352   -7.7019 H   0  0  0  0  0  0  0  0  0  0  0  0
   -6.5272    4.9046   -7.5671 H   0  0  0  0  0  0  0  0  0  0  0  0
   -7.7864    5.5096   -8.6263 H   0  0  0  0  0  0  0  0  0  0  0  0
   -6.6918    6.6638   -7.8616 H   0  0  0  0  0  0  0  0  0  0  0  0
   -5.9212   10.2612   -3.7452 H   0  0  0  0  0  0  0  0  0  0  0  0
   -4.2415   10.4401   -4.2046 H   0  0  0  0  0  0  0  0  0  0  0  0
   -5.2411   11.5569   -5.8706 H   0  0  0  0  0  0  0  0  0  0  0  0
   -3.8674    9.6548   -6.9265 H   0  0  0  0  0  0  0  0  0  0  0  0
   -5.3823    8.7783   -7.1736 H   0  0  0  0  0  0  0  0  0  0  0  0
   -6.1263   12.3794   -7.8743 H   0  0  0  0  0  0  0  0  0  0  0  0
   -6.8508   11.5280   -9.2553 H   0  0  0  0  0  0  0  0  0  0  0  0
   -8.3593   11.4161   -7.2665 H   0  0  0  0  0  0  0  0  0  0  0  0
   -7.7977    9.7998   -7.6976 H   0  0  0  0  0  0  0  0  0  0  0  0
   -3.2924    7.7484   -0.6931 H   0  0  0  0  0  0  0  0  0  0  0  0
   -2.0091    6.9376   -1.6012 H   0  0  0  0  0  0  0  0  0  0  0  0
   -2.0657    9.8157   -0.5627 H   0  0  0  0  0  0  0  0  0  0  0  0
   -0.9364    8.5470   -0.0931 H   0  0  0  0  0  0  0  0  0  0  0  0
    0.1648    8.6380   -2.2831 H   0  0  0  0  0  0  0  0  0  0  0  0
    0.0327   10.2837   -1.6799 H   0  0  0  0  0  0  0  0  0  0  0  0
   -2.1885   10.3121  -11.6857 H   0  0  0  0  0  0  0  0  0  0  0  0
   -4.2821    9.6191  -10.5886 H   0  0  0  0  0  0  0  0  0  0  0  0
   -3.7027   12.5518   -7.5300 H   0  0  0  0  0  0  0  0  0  0  0  0
  1  2  1  0
  2  3  1  0
  2  5  1  0
  3  4  1  0
  5  6  2  0
  5 10  1  0
  6  7  1  0
  7  8  2  0
  8  9  1  0
  9 10  2  0
 10 11  1  0
 11 12  1  0
 11 15  2  0
 12 13  1  0
 12 68  1  0
 13 14  1  0
 15 16  1  0
 15 67  1  0
 16 17  1  0
 17 18  1  0
 17 19  1  0
 17 20  1  0
 20 21  1  0
 21 22  1  0
 22 23  1  0
 22 66  2  0
 23 24  1  0
 23 65  1  0
 24 25  1  0
 25 26  1  0
 25 63  1  0
 26 27  1  0
 26 62  2  0
 27 28  1  0
 27 55  1  0
 28 29  1  0
 29 30  1  0
 29 54  2  0
 30 31  1  0
 30 34  1  0
 31 32  1  0
 31 33  1  0
 34 35  1  0
 34 53  1  0
 35 36  1  0
 35 52  2  0
 36 37  1  0
 36 51  1  0
 36 73  1  0
 37 38  1  0
 38 39  1  0
 39 40  1  0
 39 50  1  0
 40 41  1  0
 40 49  2  0
 42 43  1  0
 43 44  1  0
 43 47  1  0
 43 48  1  0
 44 45  1  0
 44 46  1  0
 50 51  1  0
 55 56  1  0
 56 57  1  0
 56 61  1  0
 57 58  1  0
 58 59  1  0
 58 71  1  0
 59 60  1  0
 60 61  1  0
 63 64  1  0
 64 65  1  0
 67 68  2  0
 67 72  1  0
 68 69  1  0
 69 70  2  0
 70 71  1  0
 71 72  2  0
 41 42  3  0
  1 74  1  0
  1 75  1  0
  1 76  1  0
  2 77  1  1
  4 78  1  0
  4 79  1  0
  4 80  1  0
  7 81  1  0
  8 82  1  0
  9 83  1  0
 13 84  1  0
 13 85  1  0
 14 86  1  0
 14 87  1  0
 14 88  1  0
 16 89  1  0
 16 90  1  0
 18 91  1  0
 18 92  1  0
 18 93  1  0
 19 94  1  0
 19 95  1  0
 19 96  1  0
 20 97  1  0
 20 98  1  0
 23 99  1  1
 24100  1  0
 27101  1  6
 28102  1  0
 30103  1  1
 31104  1  0
 32105  1  0
 32106  1  0
 32107  1  0
 33108  1  0
 33109  1  0
 33110  1  0
 37111  1  0
 37112  1  0
 38113  1  0
 38114  1  0
 45115  1  0
 45116  1  0
 45117  1  0
 46118  1  0
 46119  1  0
 46120  1  0
 47121  1  0
 47122  1  0
 47123  1  0
 48124  1  0
 48125  1  0
 48126  1  0
 50127  1  0
 50128  1  0
 51129  1  0
 51130  1  0
 53131  1  0
 53132  1  0
 53133  1  0
 55134  1  0
 55135  1  0
 56136  1  1
 57137  1  0
 57138  1  0
 59139  1  0
 59140  1  0
 60141  1  0
 60142  1  0
 63143  1  0
 63144  1  0
 64145  1  0
 64146  1  0
 65147  1  0
 65148  1  0
 69149  1  0
 70150  1  0
 72151  1  0
M  END
$$$$
