 xtb: 6.7.1 (edcfbbe)
          08182521003D

151157  0     0  0            999 V2000
    2.8336   12.3591   -8.0742 C   0  0  0  0  0  0  0  0  0  0  0  0
    2.8757   12.6893   -9.5676 C   0  0  0  0  0  0  0  0  0  0  0  0
    4.2171   12.5423   -9.9739 O   0  0  0  0  0  0  0  0  0  0  0  0
    4.4323   12.6394  -11.3564 C   0  0  0  0  0  0  0  0  0  0  0  0
    2.3262   14.0829   -9.8118 C   0  0  0  0  0  0  0  0  0  0  0  0
    3.2179   15.0520   -9.9376 N   0  0  0  0  0  0  0  0  0  0  0  0
    2.8127   16.2919  -10.1371 C   0  0  0  0  0  0  0  0  0  0  0  0
    1.4763   16.6450  -10.2246 C   0  0  0  0  0  0  0  0  0  0  0  0
    0.5336   15.6405  -10.0874 C   0  0  0  0  0  0  0  0  0  0  0  0
    0.9461   14.3280   -9.8772 C   0  0  0  0  0  0  0  0  0  0  0  0
   -0.0643   13.2742   -9.6950 C   0  0  0  0  0  0  0  0  0  0  0  0
   -0.4995   12.4961  -10.7340 N   0  0  0  0  0  0  0  0  0  0  0  0
   -0.1156   12.6153  -12.1157 C   0  0  0  0  0  0  0  0  0  0  0  0
    0.6794   11.4106  -12.6177 C   0  0  0  0  0  0  0  0  0  0  0  0
   -0.7337   12.9666   -8.5288 C   0  0  0  0  0  0  0  0  0  0  0  0
   -0.5181   13.8881   -7.3473 C   0  0  0  0  0  0  0  0  0  0  0  0
   -0.8932   13.4981   -5.9103 C   0  0  0  0  0  0  0  0  0  0  0  0
   -2.4127   13.5624   -5.7230 C   0  0  0  0  0  0  0  0  0  0  0  0
   -0.2558   14.5153   -4.9539 C   0  0  0  0  0  0  0  0  0  0  0  0
   -0.3187   12.1139   -5.5726 C   0  0  0  0  0  0  0  0  0  0  0  0
   -0.8308   11.6787   -4.3059 O   0  0  0  0  0  0  0  0  0  0  0  0
   -1.3572   10.4687   -4.2490 C   0  0  0  0  0  0  0  0  0  0  0  0
   -2.1948   10.2646   -2.9981 C   0  0  0  0  0  0  0  0  0  0  0  0
   -2.6030    8.8727   -2.9263 N   0  0  0  0  0  0  0  0  0  0  0  0
   -3.7057    8.7384   -2.0776 N   0  0  0  0  0  0  0  0  0  0  0  0
   -4.9933    8.5870   -2.4457 C   0  0  0  0  0  0  0  0  0  0  0  0
   -5.2590    8.4015   -3.9508 C   0  0  0  0  0  0  0  0  0  0  0  0
   -6.4488    7.6015   -4.1017 N   0  0  0  0  0  0  0  0  0  0  0  0
   -6.4457    6.4483   -4.7833 C   0  0  0  0  0  0  0  0  0  0  0  0
   -7.7772    5.6949   -4.7638 C   0  0  0  0  0  0  0  0  0  0  0  0
   -7.5982    4.3150   -4.1054 C   0  0  0  0  0  0  0  0  0  0  0  0
   -8.9285    3.5680   -4.0695 C   0  0  0  0  0  0  0  0  0  0  0  0
   -7.0572    4.5035   -2.6891 C   0  0  0  0  0  0  0  0  0  0  0  0
   -8.3178    5.6141   -6.1190 N   0  0  0  0  0  0  0  0  0  0  0  0
   -9.4703    6.2707   -6.3495 C   0  0  0  0  0  0  0  0  0  0  0  0
  -10.1211    6.1975   -7.7489 C   0  0  0  0  0  0  0  0  0  0  0  0
  -11.2327    7.2462   -7.8429 C   0  0  0  0  0  0  0  0  0  0  0  0
  -11.9703    7.1339   -9.1784 C   0  0  0  0  0  0  0  0  0  0  0  0
  -12.4652    5.7951   -9.3686 N   0  0  0  0  0  0  0  0  0  0  0  0
  -13.7731    5.4337   -9.3744 C   0  0  0  0  0  0  0  0  0  0  0  0
  -14.7136    6.5245   -9.2972 C   0  0  0  0  0  0  0  0  0  0  0  0
  -15.6588    7.2687   -9.2293 C   0  0  0  0  0  0  0  0  0  0  0  0
  -16.6810    8.3084   -9.1188 C   0  0  0  0  0  0  0  0  0  0  0  0
  -16.0872    9.6287   -8.8474 N   0  0  0  0  0  0  0  0  0  0  0  0
  -15.3707    9.6926   -7.5872 C   0  0  0  0  0  0  0  0  0  0  0  0
  -15.2598   10.1267   -9.9294 C   0  0  0  0  0  0  0  0  0  0  0  0
  -17.6429    7.9232   -7.9828 C   0  0  0  0  0  0  0  0  0  0  0  0
  -17.4795    8.3476  -10.4317 C   0  0  0  0  0  0  0  0  0  0  0  0
  -14.1428    4.2762   -9.4583 O   0  0  0  0  0  0  0  0  0  0  0  0
  -11.4394    4.7823   -9.3542 C   0  0  0  0  0  0  0  0  0  0  0  0
  -10.6910    4.8016   -8.0189 C   0  0  0  0  0  0  0  0  0  0  0  0
  -10.0529    6.8908   -5.4737 O   0  0  0  0  0  0  0  0  0  0  0  0
   -7.5679    4.8110   -7.0614 C   0  0  0  0  0  0  0  0  0  0  0  0
   -5.4600    6.0374   -5.3750 O   0  0  0  0  0  0  0  0  0  0  0  0
   -5.4230    9.7722   -4.6273 C   0  0  0  0  0  0  0  0  0  0  0  0
   -5.3499    9.7634   -6.1623 C   0  0  0  0  0  0  0  0  0  0  0  0
   -4.1242    9.0457   -6.7401 C   0  0  0  0  0  0  0  0  0  0  0  0
   -4.1024    9.2022   -8.1733 N   0  0  0  0  0  0  0  0  0  0  0  0
   -5.3579    8.8334   -8.8117 C   0  0  0  0  0  0  0  0  0  0  0  0
   -6.3625    8.3266   -7.7749 C   0  0  0  0  0  0  0  0  0  0  0  0
   -6.5507    9.2191   -6.6971 O   0  0  0  0  0  0  0  0  0  0  0  0
   -5.9026    8.5429   -1.6360 O   0  0  0  0  0  0  0  0  0  0  0  0
   -3.3035    9.0007   -0.7076 C   0  0  0  0  0  0  0  0  0  0  0  0
   -2.6785   10.3971   -0.5891 C   0  0  0  0  0  0  0  0  0  0  0  0
   -1.5803   10.6002   -1.6397 C   0  0  0  0  0  0  0  0  0  0  0  0
   -1.3048    9.6453   -5.1279 O   0  0  0  0  0  0  0  0  0  0  0  0
   -1.6242   11.8875   -8.8564 C   0  0  0  0  0  0  0  0  0  0  0  0
   -1.4659   11.6577  -10.2476 C   0  0  0  0  0  0  0  0  0  0  0  0
   -2.2448   10.7336  -10.9309 C   0  0  0  0  0  0  0  0  0  0  0  0
   -3.1398    9.9758  -10.2201 C   0  0  0  0  0  0  0  0  0  0  0  0
   -3.2629   10.0991   -8.8201 C   0  0  0  0  0  0  0  0  0  0  0  0
   -2.5208   11.0691   -8.1559 C   0  0  0  0  0  0  0  0  0  0  0  0
   -9.1825    6.5047   -8.7390 F   0  0  0  0  0  0  0  0  0  0  0  0
    3.3629   11.4248   -7.9095 H   0  0  0  0  0  0  0  0  0  0  0  0
    3.3319   13.1445   -7.5128 H   0  0  0  0  0  0  0  0  0  0  0  0
    1.8055   12.2538   -7.7435 H   0  0  0  0  0  0  0  0  0  0  0  0
    2.2416   11.9629  -10.1059 H   0  0  0  0  0  0  0  0  0  0  0  0
    3.8745   11.8658  -11.9025 H   0  0  0  0  0  0  0  0  0  0  0  0
    4.1518   13.6234  -11.7454 H   0  0  0  0  0  0  0  0  0  0  0  0
    5.4986   12.4849  -11.5079 H   0  0  0  0  0  0  0  0  0  0  0  0
    3.6005   17.0276  -10.2320 H   0  0  0  0  0  0  0  0  0  0  0  0
    1.1815   17.6690  -10.3928 H   0  0  0  0  0  0  0  0  0  0  0  0
   -0.5232   15.8611  -10.1453 H   0  0  0  0  0  0  0  0  0  0  0  0
   -1.0229   12.7280  -12.7212 H   0  0  0  0  0  0  0  0  0  0  0  0
    0.4832   13.5242  -12.2237 H   0  0  0  0  0  0  0  0  0  0  0  0
    1.6118   11.3105  -12.0684 H   0  0  0  0  0  0  0  0  0  0  0  0
    0.1100   10.4943  -12.4898 H   0  0  0  0  0  0  0  0  0  0  0  0
    0.9110   11.5374  -13.6720 H   0  0  0  0  0  0  0  0  0  0  0  0
    0.5427   14.1565   -7.3532 H   0  0  0  0  0  0  0  0  0  0  0  0
   -1.0657   14.8140   -7.5624 H   0  0  0  0  0  0  0  0  0  0  0  0
   -2.7008   13.1486   -4.7592 H   0  0  0  0  0  0  0  0  0  0  0  0
   -2.7344   14.6012   -5.7514 H   0  0  0  0  0  0  0  0  0  0  0  0
   -2.9350   13.0338   -6.5123 H   0  0  0  0  0  0  0  0  0  0  0  0
   -0.5180   14.2718   -3.9274 H   0  0  0  0  0  0  0  0  0  0  0  0
    0.8282   14.5062   -5.0433 H   0  0  0  0  0  0  0  0  0  0  0  0
   -0.6080   15.5204   -5.1734 H   0  0  0  0  0  0  0  0  0  0  0  0
   -0.5752   11.3719   -6.3322 H   0  0  0  0  0  0  0  0  0  0  0  0
    0.7704   12.1709   -5.4898 H   0  0  0  0  0  0  0  0  0  0  0  0
   -3.0628   10.9421   -3.1392 H   0  0  0  0  0  0  0  0  0  0  0  0
   -2.7406    8.4658   -3.8451 H   0  0  0  0  0  0  0  0  0  0  0  0
   -4.4546    7.8229   -4.4131 H   0  0  0  0  0  0  0  0  0  0  0  0
   -7.2544    7.8974   -3.5707 H   0  0  0  0  0  0  0  0  0  0  0  0
   -8.5103    6.2661   -4.1867 H   0  0  0  0  0  0  0  0  0  0  0  0
   -6.8670    3.7400   -4.6811 H   0  0  0  0  0  0  0  0  0  0  0  0
   -9.6634    4.1386   -3.5062 H   0  0  0  0  0  0  0  0  0  0  0  0
   -9.3217    3.4059   -5.0701 H   0  0  0  0  0  0  0  0  0  0  0  0
   -8.8019    2.5998   -3.5911 H   0  0  0  0  0  0  0  0  0  0  0  0
   -7.7329    5.1184   -2.0987 H   0  0  0  0  0  0  0  0  0  0  0  0
   -6.9530    3.5389   -2.1983 H   0  0  0  0  0  0  0  0  0  0  0  0
   -6.0818    4.9838   -2.7060 H   0  0  0  0  0  0  0  0  0  0  0  0
  -11.9194    7.0894   -7.0115 H   0  0  0  0  0  0  0  0  0  0  0  0
  -10.7930    8.2387   -7.7380 H   0  0  0  0  0  0  0  0  0  0  0  0
  -12.8054    7.8365   -9.2064 H   0  0  0  0  0  0  0  0  0  0  0  0
  -11.2790    7.3734   -9.9962 H   0  0  0  0  0  0  0  0  0  0  0  0
  -16.0537    9.5190   -6.7599 H   0  0  0  0  0  0  0  0  0  0  0  0
  -14.5424    8.9710   -7.5222 H   0  0  0  0  0  0  0  0  0  0  0  0
  -14.9618   10.6956   -7.4746 H   0  0  0  0  0  0  0  0  0  0  0  0
  -14.8348   11.0823   -9.6259 H   0  0  0  0  0  0  0  0  0  0  0  0
  -14.4333    9.4479  -10.1913 H   0  0  0  0  0  0  0  0  0  0  0  0
  -15.8661   10.3000  -10.8149 H   0  0  0  0  0  0  0  0  0  0  0  0
  -17.1058    7.6570   -7.0769 H   0  0  0  0  0  0  0  0  0  0  0  0
  -18.3080    8.7579   -7.7772 H   0  0  0  0  0  0  0  0  0  0  0  0
  -18.2342    7.0617   -8.2823 H   0  0  0  0  0  0  0  0  0  0  0  0
  -18.1419    9.2093  -10.4241 H   0  0  0  0  0  0  0  0  0  0  0  0
  -16.8248    8.4017  -11.2971 H   0  0  0  0  0  0  0  0  0  0  0  0
  -18.0744    7.4425  -10.5227 H   0  0  0  0  0  0  0  0  0  0  0  0
  -11.9219    3.8150   -9.5082 H   0  0  0  0  0  0  0  0  0  0  0  0
  -10.7351    4.9728  -10.1721 H   0  0  0  0  0  0  0  0  0  0  0  0
   -9.8948    4.0595   -8.0456 H   0  0  0  0  0  0  0  0  0  0  0  0
  -11.3755    4.5551   -7.2055 H   0  0  0  0  0  0  0  0  0  0  0  0
   -6.5110    4.8917   -6.8107 H   0  0  0  0  0  0  0  0  0  0  0  0
   -7.8588    3.7586   -6.9961 H   0  0  0  0  0  0  0  0  0  0  0  0
   -7.6998    5.1594   -8.0793 H   0  0  0  0  0  0  0  0  0  0  0  0
   -6.3965   10.1769   -4.3425 H   0  0  0  0  0  0  0  0  0  0  0  0
   -4.6555   10.4562   -4.2644 H   0  0  0  0  0  0  0  0  0  0  0  0
   -5.3017   10.8213   -6.4816 H   0  0  0  0  0  0  0  0  0  0  0  0
   -3.1987    9.4204   -6.3098 H   0  0  0  0  0  0  0  0  0  0  0  0
   -4.1830    7.9742   -6.5202 H   0  0  0  0  0  0  0  0  0  0  0  0
   -5.7784    9.7033   -9.3342 H   0  0  0  0  0  0  0  0  0  0  0  0
   -5.2017    8.0318   -9.5450 H   0  0  0  0  0  0  0  0  0  0  0  0
   -7.3459    8.2193   -8.2360 H   0  0  0  0  0  0  0  0  0  0  0  0
   -6.0454    7.3431   -7.4092 H   0  0  0  0  0  0  0  0  0  0  0  0
   -4.1889    8.9110   -0.0782 H   0  0  0  0  0  0  0  0  0  0  0  0
   -2.5691    8.2410   -0.4265 H   0  0  0  0  0  0  0  0  0  0  0  0
   -3.4572   11.1500   -0.7317 H   0  0  0  0  0  0  0  0  0  0  0  0
   -2.2690   10.5189    0.4133 H   0  0  0  0  0  0  0  0  0  0  0  0
   -0.7495    9.9200   -1.4521 H   0  0  0  0  0  0  0  0  0  0  0  0
   -1.2131   11.6258   -1.6245 H   0  0  0  0  0  0  0  0  0  0  0  0
   -2.1546   10.6061  -11.9989 H   0  0  0  0  0  0  0  0  0  0  0  0
   -3.7349    9.2441  -10.7406 H   0  0  0  0  0  0  0  0  0  0  0  0
   -2.6320   11.1751   -7.0915 H   0  0  0  0  0  0  0  0  0  0  0  0
  1  2  1  0  0  0  0
  2  3  1  0  0  0  0
  3  4  1  0  0  0  0
  2  5  1  0  0  0  0
  5  6  4  0  0  0  0
  6  7  4  0  0  0  0
  7  8  4  0  0  0  0
  8  9  4  0  0  0  0
  5 10  4  0  0  0  0
  9 10  4  0  0  0  0
 10 11  1  0  0  0  0
 11 12  1  0  0  0  0
 12 13  1  0  0  0  0
 13 14  1  0  0  0  0
 11 15  2  0  0  0  0
 15 16  1  0  0  0  0
 16 17  1  0  0  0  0
 17 18  1  0  0  0  0
 17 19  1  0  0  0  0
 17 20  1  0  0  0  0
 20 21  1  0  0  0  0
 21 22  1  0  0  0  0
 22 23  1  0  0  0  0
 23 24  1  0  0  0  0
 24 25  1  0  0  0  0
 25 26  4  0  0  0  0
 26 27  1  0  0  0  0
 27 28  1  0  0  0  0
 28 29  4  0  0  0  0
 29 30  1  0  0  0  0
 30 31  1  0  0  0  0
 31 32  1  0  0  0  0
 31 33  1  0  0  0  0
 30 34  1  0  0  0  0
 34 35  4  0  0  0  0
 35 36  1  0  0  0  0
 36 37  1  0  0  0  0
 37 38  1  0  0  0  0
 38 39  1  0  0  0  0
 39 40  4  0  0  0  0
 40 41  1  0  0  0  0
 41 42  3  0  0  0  0
 42 43  1  0  0  0  0
 43 44  1  0  0  0  0
 44 45  1  0  0  0  0
 44 46  1  0  0  0  0
 43 47  1  0  0  0  0
 43 48  1  0  0  0  0
 40 49  2  0  0  0  0
 39 50  1  0  0  0  0
 36 51  1  0  0  0  0
 50 51  1  0  0  0  0
 35 52  2  0  0  0  0
 34 53  1  0  0  0  0
 29 54  2  0  0  0  0
 27 55  1  0  0  0  0
 55 56  1  0  0  0  0
 56 57  1  0  0  0  0
 57 58  1  0  0  0  0
 58 59  1  0  0  0  0
 59 60  1  0  0  0  0
 56 61  1  0  0  0  0
 60 61  1  0  0  0  0
 26 62  2  0  0  0  0
 25 63  1  0  0  0  0
 63 64  1  0  0  0  0
 23 65  1  0  0  0  0
 64 65  1  0  0  0  0
 22 66  2  0  0  0  0
 15 67  4  0  0  0  0
 12 68  1  0  0  0  0
 67 68  4  0  0  0  0
 68 69  4  0  0  0  0
 69 70  2  0  0  0  0
 58 71  1  0  0  0  0
 70 71  4  0  0  0  0
 67 72  4  0  0  0  0
 71 72  4  0  0  0  0
 36 73  1  0  0  0  0
  1 74  1  0  0  0  0
  1 75  1  0  0  0  0
  1 76  1  0  0  0  0
  2 77  1  0  0  0  0
  4 78  1  0  0  0  0
  4 79  1  0  0  0  0
  4 80  1  0  0  0  0
  7 81  1  0  0  0  0
  8 82  1  0  0  0  0
  9 83  1  0  0  0  0
 13 84  1  0  0  0  0
 13 85  1  0  0  0  0
 14 86  1  0  0  0  0
 14 87  1  0  0  0  0
 14 88  1  0  0  0  0
 16 89  1  0  0  0  0
 16 90  1  0  0  0  0
 18 91  1  0  0  0  0
 18 92  1  0  0  0  0
 18 93  1  0  0  0  0
 19 94  1  0  0  0  0
 19 95  1  0  0  0  0
 19 96  1  0  0  0  0
 20 97  1  0  0  0  0
 20 98  1  0  0  0  0
 23 99  1  0  0  0  0
 24100  1  0  0  0  0
 27101  1  0  0  0  0
 28102  1  0  0  0  0
 30103  1  0  0  0  0
 31104  1  0  0  0  0
 32105  1  0  0  0  0
 32106  1  0  0  0  0
 32107  1  0  0  0  0
 33108  1  0  0  0  0
 33109  1  0  0  0  0
 33110  1  0  0  0  0
 37111  1  0  0  0  0
 37112  1  0  0  0  0
 38113  1  0  0  0  0
 38114  1  0  0  0  0
 45115  1  0  0  0  0
 45116  1  0  0  0  0
 45117  1  0  0  0  0
 46118  1  0  0  0  0
 46119  1  0  0  0  0
 46120  1  0  0  0  0
 47121  1  0  0  0  0
 47122  1  0  0  0  0
 47123  1  0  0  0  0
 48124  1  0  0  0  0
 48125  1  0  0  0  0
 48126  1  0  0  0  0
 50127  1  0  0  0  0
 50128  1  0  0  0  0
 51129  1  0  0  0  0
 51130  1  0  0  0  0
 53131  1  0  0  0  0
 53132  1  0  0  0  0
 53133  1  0  0  0  0
 55134  1  0  0  0  0
 55135  1  0  0  0  0
 56136  1  0  0  0  0
 57137  1  0  0  0  0
 57138  1  0  0  0  0
 59139  1  0  0  0  0
 59140  1  0  0  0  0
 60141  1  0  0  0  0
 60142  1  0  0  0  0
 63143  1  0  0  0  0
 63144  1  0  0  0  0
 64145  1  0  0  0  0
 64146  1  0  0  0  0
 65147  1  0  0  0  0
 65148  1  0  0  0  0
 69149  1  0  0  0  0
 70150  1  0  0  0  0
 72151  1  0  0  0  0
M  END
$$$$
