 energy: -221.284340922530 gnorm: 0.000396631357 xtb: 6.7.1 (edcfbbe)
          08172522523D

151157  0     0  0            999 V2000
    2.3452    7.1993   -8.2577 C   0  0  0  0  0  0  0  0  0  0  0  0
    2.2923    5.8361   -7.5713 C   0  0  0  0  0  0  0  0  0  0  0  0
    3.5462    5.1688   -7.5990 O   0  0  0  0  0  0  0  0  0  0  0  0
    4.4432    5.5701   -6.5977 C   0  0  0  0  0  0  0  0  0  0  0  0
    1.3062    4.9081   -8.2544 C   0  0  0  0  0  0  0  0  0  0  0  0
    0.9612    5.1976   -9.4966 N   0  0  0  0  0  0  0  0  0  0  0  0
    0.1139    4.4095  -10.1326 C   0  0  0  0  0  0  0  0  0  0  0  0
   -0.4547    3.2863   -9.5551 C   0  0  0  0  0  0  0  0  0  0  0  0
   -0.1063    2.9804   -8.2502 C   0  0  0  0  0  0  0  0  0  0  0  0
    0.8019    3.7891   -7.5755 C   0  0  0  0  0  0  0  0  0  0  0  0
    1.1862    3.5175   -6.1821 C   0  0  0  0  0  0  0  0  0  0  0  0
    0.4351    4.0411   -5.1504 N   0  0  0  0  0  0  0  0  0  0  0  0
   -0.7950    4.7732   -5.2856 C   0  0  0  0  0  0  0  0  0  0  0  0
   -2.0164    3.8682   -5.1259 C   0  0  0  0  0  0  0  0  0  0  0  0
    2.2775    2.8479   -5.6857 C   0  0  0  0  0  0  0  0  0  0  0  0
    3.3694    2.1933   -6.4688 C   0  0  0  0  0  0  0  0  0  0  0  0
    3.2222    0.6728   -6.7031 C   0  0  0  0  0  0  0  0  0  0  0  0
    4.3041    0.2284   -7.6907 C   0  0  0  0  0  0  0  0  0  0  0  0
    1.8456    0.3419   -7.2769 C   0  0  0  0  0  0  0  0  0  0  0  0
    3.3723   -0.1093   -5.3870 C   0  0  0  0  0  0  0  0  0  0  0  0
    4.6796    0.0125   -4.8187 O   0  0  0  0  0  0  0  0  0  0  0  0
    5.5182   -1.0142   -4.9572 C   0  0  0  0  0  0  0  0  0  0  0  0
    6.8592   -0.6861   -4.3146 C   0  0  0  0  0  0  0  0  0  0  0  0
    7.1496   -1.6620   -3.2666 N   0  0  0  0  0  0  0  0  0  0  0  0
    8.3104   -1.2936   -2.5780 N   0  0  0  0  0  0  0  0  0  0  0  0
    8.3820   -0.5147   -1.4757 C   0  0  0  0  0  0  0  0  0  0  0  0
    7.0317   -0.1573   -0.8242 C   0  0  0  0  0  0  0  0  0  0  0  0
    6.6924   -1.1600    0.1613 N   0  0  0  0  0  0  0  0  0  0  0  0
    5.7816   -2.1083   -0.0810 C   0  0  0  0  0  0  0  0  0  0  0  0
    5.5494   -3.0625    1.0896 C   0  0  0  0  0  0  0  0  0  0  0  0
    5.4052   -4.5175    0.6198 C   0  0  0  0  0  0  0  0  0  0  0  0
    5.1906   -5.4420    1.8158 C   0  0  0  0  0  0  0  0  0  0  0  0
    6.6700   -4.9224   -0.1365 C   0  0  0  0  0  0  0  0  0  0  0  0
    4.3958   -2.5836    1.8505 N   0  0  0  0  0  0  0  0  0  0  0  0
    4.6669   -1.9283    2.9955 C   0  0  0  0  0  0  0  0  0  0  0  0
    3.5147   -1.5691    3.9554 C   0  0  0  0  0  0  0  0  0  0  0  0
    4.0034   -0.6453    5.0760 C   0  0  0  0  0  0  0  0  0  0  0  0
    4.8637   -1.3859    6.1035 C   0  0  0  0  0  0  0  0  0  0  0  0
    4.1869   -2.5674    6.5738 N   0  0  0  0  0  0  0  0  0  0  0  0
    3.6840   -2.7343    7.8230 C   0  0  0  0  0  0  0  0  0  0  0  0
    3.9983   -1.6726    8.7479 C   0  0  0  0  0  0  0  0  0  0  0  0
    4.1641   -0.8502    9.6106 C   0  0  0  0  0  0  0  0  0  0  0  0
    4.3717    0.1834   10.6211 C   0  0  0  0  0  0  0  0  0  0  0  0
    5.4089    1.0927   10.1182 N   0  0  0  0  0  0  0  0  0  0  0  0
    6.6751    0.4451    9.8411 C   0  0  0  0  0  0  0  0  0  0  0  0
    5.6173    2.2947   10.8952 C   0  0  0  0  0  0  0  0  0  0  0  0
    4.7155   -0.5110   11.9542 C   0  0  0  0  0  0  0  0  0  0  0  0
    3.0303    0.9226   10.7568 C   0  0  0  0  0  0  0  0  0  0  0  0
    3.0324   -3.7079    8.1563 O   0  0  0  0  0  0  0  0  0  0  0  0
    3.8406   -3.5000    5.5305 C   0  0  0  0  0  0  0  0  0  0  0  0
    2.8821   -2.8363    4.5404 C   0  0  0  0  0  0  0  0  0  0  0  0
    5.8176   -1.7061    3.3444 O   0  0  0  0  0  0  0  0  0  0  0  0
    3.1122   -2.7333    1.1997 C   0  0  0  0  0  0  0  0  0  0  0  0
    5.1858   -2.2040   -1.1461 O   0  0  0  0  0  0  0  0  0  0  0  0
    7.0866    1.2417   -0.2135 C   0  0  0  0  0  0  0  0  0  0  0  0
    5.7020    1.8256    0.0826 C   0  0  0  0  0  0  0  0  0  0  0  0
    4.8231    1.9192   -1.1730 C   0  0  0  0  0  0  0  0  0  0  0  0
    3.5319    2.4823   -0.8330 N   0  0  0  0  0  0  0  0  0  0  0  0
    2.9033    1.6696    0.1970 C   0  0  0  0  0  0  0  0  0  0  0  0
    3.8239    1.6037    1.4130 C   0  0  0  0  0  0  0  0  0  0  0  0
    5.0729    1.0453    1.0794 O   0  0  0  0  0  0  0  0  0  0  0  0
    9.4429   -0.1671   -0.9909 O   0  0  0  0  0  0  0  0  0  0  0  0
    9.4718   -1.4835   -3.4268 C   0  0  0  0  0  0  0  0  0  0  0  0
    9.3397   -0.5727   -4.6506 C   0  0  0  0  0  0  0  0  0  0  0  0
    7.9952   -0.8073   -5.3403 C   0  0  0  0  0  0  0  0  0  0  0  0
    5.2610   -2.0501   -5.5052 O   0  0  0  0  0  0  0  0  0  0  0  0
    2.2058    2.9709   -4.2644 C   0  0  0  0  0  0  0  0  0  0  0  0
    1.0400    3.7110   -3.9677 C   0  0  0  0  0  0  0  0  0  0  0  0
    0.7055    4.0162   -2.6535 C   0  0  0  0  0  0  0  0  0  0  0  0
    1.5438    3.5826   -1.6532 C   0  0  0  0  0  0  0  0  0  0  0  0
    2.7100    2.8403   -1.9225 C   0  0  0  0  0  0  0  0  0  0  0  0
    3.0400    2.5397   -3.2332 C   0  0  0  0  0  0  0  0  0  0  0  0
    2.5097   -0.8612    3.2839 F   0  0  0  0  0  0  0  0  0  0  0  0
    3.0422    7.8567   -7.7441 H   0  0  0  0  0  0  0  0  0  0  0  0
    2.6618    7.0693   -9.2875 H   0  0  0  0  0  0  0  0  0  0  0  0
    1.3586    7.6529   -8.2477 H   0  0  0  0  0  0  0  0  0  0  0  0
    1.9822    5.9630   -6.5195 H   0  0  0  0  0  0  0  0  0  0  0  0
    4.0237    5.3972   -5.5982 H   0  0  0  0  0  0  0  0  0  0  0  0
    5.3333    4.9573   -6.7265 H   0  0  0  0  0  0  0  0  0  0  0  0
    4.7202    6.6260   -6.6902 H   0  0  0  0  0  0  0  0  0  0  0  0
   -0.1224    4.7038  -11.1468 H   0  0  0  0  0  0  0  0  0  0  0  0
   -1.1522    2.6727  -10.1037 H   0  0  0  0  0  0  0  0  0  0  0  0
   -0.5342    2.1206   -7.7550 H   0  0  0  0  0  0  0  0  0  0  0  0
   -0.8151    5.5581   -4.5231 H   0  0  0  0  0  0  0  0  0  0  0  0
   -0.8109    5.2499   -6.2704 H   0  0  0  0  0  0  0  0  0  0  0  0
   -1.9858    3.3632   -4.1633 H   0  0  0  0  0  0  0  0  0  0  0  0
   -2.9279    4.4567   -5.1857 H   0  0  0  0  0  0  0  0  0  0  0  0
   -2.0356    3.1165   -5.9110 H   0  0  0  0  0  0  0  0  0  0  0  0
    3.4317    2.6841   -7.4420 H   0  0  0  0  0  0  0  0  0  0  0  0
    4.3146    2.3597   -5.9469 H   0  0  0  0  0  0  0  0  0  0  0  0
    5.2912    0.5242   -7.3407 H   0  0  0  0  0  0  0  0  0  0  0  0
    4.2943   -0.8528   -7.8100 H   0  0  0  0  0  0  0  0  0  0  0  0
    4.1366    0.6887   -8.6615 H   0  0  0  0  0  0  0  0  0  0  0  0
    1.0663    0.5958   -6.5622 H   0  0  0  0  0  0  0  0  0  0  0  0
    1.6813    0.9059   -8.1914 H   0  0  0  0  0  0  0  0  0  0  0  0
    1.7734   -0.7190   -7.5061 H   0  0  0  0  0  0  0  0  0  0  0  0
    2.6771    0.2765   -4.6384 H   0  0  0  0  0  0  0  0  0  0  0  0
    3.1755   -1.1714   -5.5629 H   0  0  0  0  0  0  0  0  0  0  0  0
    6.8128    0.3470   -3.9248 H   0  0  0  0  0  0  0  0  0  0  0  0
    6.3646   -1.8601   -2.6471 H   0  0  0  0  0  0  0  0  0  0  0  0
    6.2492   -0.1935   -1.5840 H   0  0  0  0  0  0  0  0  0  0  0  0
    7.0771   -1.0512    1.0880 H   0  0  0  0  0  0  0  0  0  0  0  0
    6.4061   -3.0015    1.7685 H   0  0  0  0  0  0  0  0  0  0  0  0
    4.5581   -4.5936   -0.0666 H   0  0  0  0  0  0  0  0  0  0  0  0
    4.2983   -5.1750    2.3764 H   0  0  0  0  0  0  0  0  0  0  0  0
    5.0863   -6.4704    1.4793 H   0  0  0  0  0  0  0  0  0  0  0  0
    6.0434   -5.3872    2.4895 H   0  0  0  0  0  0  0  0  0  0  0  0
    6.6027   -5.9638   -0.4410 H   0  0  0  0  0  0  0  0  0  0  0  0
    6.7986   -4.3158   -1.0290 H   0  0  0  0  0  0  0  0  0  0  0  0
    7.5488   -4.8045    0.4945 H   0  0  0  0  0  0  0  0  0  0  0  0
    4.5818    0.1699    4.6405 H   0  0  0  0  0  0  0  0  0  0  0  0
    3.1197   -0.2294    5.5655 H   0  0  0  0  0  0  0  0  0  0  0  0
    5.8054   -1.6809    5.6304 H   0  0  0  0  0  0  0  0  0  0  0  0
    5.0750   -0.7267    6.9468 H   0  0  0  0  0  0  0  0  0  0  0  0
    7.2708    0.2546   10.7465 H   0  0  0  0  0  0  0  0  0  0  0  0
    6.5025   -0.4998    9.3298 H   0  0  0  0  0  0  0  0  0  0  0  0
    7.2561    1.0940    9.1844 H   0  0  0  0  0  0  0  0  0  0  0  0
    4.6865    2.8447   11.0022 H   0  0  0  0  0  0  0  0  0  0  0  0
    6.0389    2.1036   11.8941 H   0  0  0  0  0  0  0  0  0  0  0  0
    6.3201    2.9256   10.3508 H   0  0  0  0  0  0  0  0  0  0  0  0
    4.8602    0.2297   12.7375 H   0  0  0  0  0  0  0  0  0  0  0  0
    3.9002   -1.1694   12.2425 H   0  0  0  0  0  0  0  0  0  0  0  0
    5.6189   -1.1079   11.8563 H   0  0  0  0  0  0  0  0  0  0  0  0
    3.0147    1.5421   11.6497 H   0  0  0  0  0  0  0  0  0  0  0  0
    2.8607    1.5434    9.8808 H   0  0  0  0  0  0  0  0  0  0  0  0
    2.2243    0.1962   10.8309 H   0  0  0  0  0  0  0  0  0  0  0  0
    4.7546   -3.8180    5.0168 H   0  0  0  0  0  0  0  0  0  0  0  0
    3.3651   -4.3651    5.9977 H   0  0  0  0  0  0  0  0  0  0  0  0
    1.9676   -2.5449    5.0630 H   0  0  0  0  0  0  0  0  0  0  0  0
    2.6135   -3.5337    3.7476 H   0  0  0  0  0  0  0  0  0  0  0  0
    2.7074   -3.7373    1.3514 H   0  0  0  0  0  0  0  0  0  0  0  0
    2.3948   -2.0046    1.5573 H   0  0  0  0  0  0  0  0  0  0  0  0
    3.2510   -2.5769    0.1295 H   0  0  0  0  0  0  0  0  0  0  0  0
    7.6617    1.2006    0.7124 H   0  0  0  0  0  0  0  0  0  0  0  0
    7.6085    1.9078   -0.9019 H   0  0  0  0  0  0  0  0  0  0  0  0
    5.8329    2.8513    0.4724 H   0  0  0  0  0  0  0  0  0  0  0  0
    5.3172    2.5722   -1.8952 H   0  0  0  0  0  0  0  0  0  0  0  0
    4.6934    0.9166   -1.6104 H   0  0  0  0  0  0  0  0  0  0  0  0
    1.9473    2.1029    0.4859 H   0  0  0  0  0  0  0  0  0  0  0  0
    2.7286    0.6429   -0.1692 H   0  0  0  0  0  0  0  0  0  0  0  0
    3.9677    2.6182    1.8155 H   0  0  0  0  0  0  0  0  0  0  0  0
    3.3927    0.9658    2.1822 H   0  0  0  0  0  0  0  0  0  0  0  0
   10.3600   -1.2405   -2.8438 H   0  0  0  0  0  0  0  0  0  0  0  0
    9.4946   -2.5314   -3.7326 H   0  0  0  0  0  0  0  0  0  0  0  0
    9.4087    0.4681   -4.3249 H   0  0  0  0  0  0  0  0  0  0  0  0
   10.1566   -0.7680   -5.3451 H   0  0  0  0  0  0  0  0  0  0  0  0
    7.9562   -1.8152   -5.7553 H   0  0  0  0  0  0  0  0  0  0  0  0
    7.8518   -0.0890   -6.1489 H   0  0  0  0  0  0  0  0  0  0  0  0
   -0.1783    4.5887   -2.4138 H   0  0  0  0  0  0  0  0  0  0  0  0
    1.3138    3.8360   -0.6298 H   0  0  0  0  0  0  0  0  0  0  0  0
    3.9247    1.9802   -3.4847 H   0  0  0  0  0  0  0  0  0  0  0  0
  1  2  1  0  0  0  0
  2  3  1  0  0  0  0
  2  5  1  0  0  0  0
  3  4  1  0  0  0  0
  5  6  2  0  0  0  0
  5 10  1  0  0  0  0
  6  7  1  0  0  0  0
  7  8  2  0  0  0  0
  8  9  1  0  0  0  0
  9 10  2  0  0  0  0
 10 11  1  0  0  0  0
 11 12  1  0  0  0  0
 11 15  2  0  0  0  0
 12 13  1  0  0  0  0
 12 68  1  0  0  0  0
 13 14  1  0  0  0  0
 15 16  1  0  0  0  0
 15 67  1  0  0  0  0
 16 17  1  0  0  0  0
 17 18  1  0  0  0  0
 17 19  1  0  0  0  0
 17 20  1  0  0  0  0
 20 21  1  0  0  0  0
 21 22  1  0  0  0  0
 22 23  1  0  0  0  0
 22 66  2  0  0  0  0
 23 24  1  0  0  0  0
 23 65  1  0  0  0  0
 24 25  1  0  0  0  0
 25 26  1  0  0  0  0
 25 63  1  0  0  0  0
 26 27  1  0  0  0  0
 26 62  2  0  0  0  0
 27 28  1  0  0  0  0
 27 55  1  0  0  0  0
 28 29  1  0  0  0  0
 29 30  1  0  0  0  0
 29 54  2  0  0  0  0
 30 31  1  0  0  0  0
 30 34  1  0  0  0  0
 31 32  1  0  0  0  0
 31 33  1  0  0  0  0
 34 35  1  0  0  0  0
 34 53  1  0  0  0  0
 35 36  1  0  0  0  0
 35 52  2  0  0  0  0
 36 37  1  0  0  0  0
 36 51  1  0  0  0  0
 36 73  1  0  0  0  0
 37 38  1  0  0  0  0
 38 39  1  0  0  0  0
 39 40  1  0  0  0  0
 39 50  1  0  0  0  0
 40 41  1  0  0  0  0
 40 49  2  0  0  0  0
 42 43  1  0  0  0  0
 43 44  1  0  0  0  0
 43 47  1  0  0  0  0
 43 48  1  0  0  0  0
 44 45  1  0  0  0  0
 44 46  1  0  0  0  0
 50 51  1  0  0  0  0
 55 56  1  0  0  0  0
 56 57  1  0  0  0  0
 56 61  1  0  0  0  0
 57 58  1  0  0  0  0
 58 59  1  0  0  0  0
 58 71  1  0  0  0  0
 59 60  1  0  0  0  0
 60 61  1  0  0  0  0
 63 64  1  0  0  0  0
 64 65  1  0  0  0  0
 67 68  2  0  0  0  0
 67 72  1  0  0  0  0
 68 69  1  0  0  0  0
 69 70  2  0  0  0  0
 70 71  1  0  0  0  0
 71 72  2  0  0  0  0
  1 74  1  0  0  0  0
  1 75  1  0  0  0  0
  1 76  1  0  0  0  0
  2 77  1  0  0  0  0
  4 78  1  0  0  0  0
  4 79  1  0  0  0  0
  4 80  1  0  0  0  0
  7 81  1  0  0  0  0
  8 82  1  0  0  0  0
  9 83  1  0  0  0  0
 13 84  1  0  0  0  0
 13 85  1  0  0  0  0
 14 86  1  0  0  0  0
 14 87  1  0  0  0  0
 14 88  1  0  0  0  0
 16 89  1  0  0  0  0
 16 90  1  0  0  0  0
 18 91  1  0  0  0  0
 18 92  1  0  0  0  0
 18 93  1  0  0  0  0
 19 94  1  0  0  0  0
 19 95  1  0  0  0  0
 19 96  1  0  0  0  0
 20 97  1  0  0  0  0
 20 98  1  0  0  0  0
 23 99  1  0  0  0  0
 24100  1  0  0  0  0
 27101  1  0  0  0  0
 28102  1  0  0  0  0
 30103  1  0  0  0  0
 31104  1  0  0  0  0
 32105  1  0  0  0  0
 32106  1  0  0  0  0
 32107  1  0  0  0  0
 33108  1  0  0  0  0
 33109  1  0  0  0  0
 33110  1  0  0  0  0
 37111  1  0  0  0  0
 37112  1  0  0  0  0
 38113  1  0  0  0  0
 38114  1  0  0  0  0
 45115  1  0  0  0  0
 45116  1  0  0  0  0
 45117  1  0  0  0  0
 46118  1  0  0  0  0
 46119  1  0  0  0  0
 46120  1  0  0  0  0
 47121  1  0  0  0  0
 47122  1  0  0  0  0
 47123  1  0  0  0  0
 48124  1  0  0  0  0
 48125  1  0  0  0  0
 48126  1  0  0  0  0
 50127  1  0  0  0  0
 50128  1  0  0  0  0
 51129  1  0  0  0  0
 51130  1  0  0  0  0
 53131  1  0  0  0  0
 53132  1  0  0  0  0
 53133  1  0  0  0  0
 55134  1  0  0  0  0
 55135  1  0  0  0  0
 56136  1  0  0  0  0
 57137  1  0  0  0  0
 57138  1  0  0  0  0
 59139  1  0  0  0  0
 59140  1  0  0  0  0
 60141  1  0  0  0  0
 60142  1  0  0  0  0
 63143  1  0  0  0  0
 63144  1  0  0  0  0
 64145  1  0  0  0  0
 64146  1  0  0  0  0
 65147  1  0  0  0  0
 65148  1  0  0  0  0
 69149  1  0  0  0  0
 70150  1  0  0  0  0
 72151  1  0  0  0  0
 41 42  3  0  0  0  0
M  END
$$$$
