 energy: -221.280506210997 gnorm: 0.000417310102 xtb: 6.7.1 (edcfbbe)
          08172523203D

151157  0     0  0            999 V2000
    3.4868    7.5718   -7.9106 C   0  0  0  0  0  0  0  0  0  0  0  0
    3.2153    6.1656   -7.3797 C   0  0  0  0  0  0  0  0  0  0  0  0
    4.3017    5.2813   -7.6149 O   0  0  0  0  0  0  0  0  0  0  0  0
    5.3455    5.3790   -6.6826 C   0  0  0  0  0  0  0  0  0  0  0  0
    2.0068    5.5459   -8.0548 C   0  0  0  0  0  0  0  0  0  0  0  0
    1.6701    6.0193   -9.2419 N   0  0  0  0  0  0  0  0  0  0  0  0
    0.6225    5.5154   -9.8671 C   0  0  0  0  0  0  0  0  0  0  0  0
   -0.1712    4.5156   -9.3288 C   0  0  0  0  0  0  0  0  0  0  0  0
    0.1709    4.0162   -8.0839 C   0  0  0  0  0  0  0  0  0  0  0  0
    1.2909    4.5165   -7.4267 C   0  0  0  0  0  0  0  0  0  0  0  0
    1.6794    4.0188   -6.0985 C   0  0  0  0  0  0  0  0  0  0  0  0
    1.0742    4.5269   -4.9706 N   0  0  0  0  0  0  0  0  0  0  0  0
    0.0143    5.4984   -4.9391 C   0  0  0  0  0  0  0  0  0  0  0  0
   -1.3566    4.8440   -4.7706 C   0  0  0  0  0  0  0  0  0  0  0  0
    2.6467    3.1057   -5.7524 C   0  0  0  0  0  0  0  0  0  0  0  0
    3.5262    2.3558   -6.7008 C   0  0  0  0  0  0  0  0  0  0  0  0
    3.0344    0.9459   -7.1047 C   0  0  0  0  0  0  0  0  0  0  0  0
    1.5537    0.9615   -7.4786 C   0  0  0  0  0  0  0  0  0  0  0  0
    3.8552    0.4667   -8.3045 C   0  0  0  0  0  0  0  0  0  0  0  0
    3.2202   -0.0385   -5.9457 C   0  0  0  0  0  0  0  0  0  0  0  0
    4.6163   -0.2023   -5.6765 O   0  0  0  0  0  0  0  0  0  0  0  0
    4.9374   -0.8746   -4.5826 C   0  0  0  0  0  0  0  0  0  0  0  0
    6.4425   -0.9300   -4.3662 C   0  0  0  0  0  0  0  0  0  0  0  0
    6.8145   -2.1365   -3.6468 N   0  0  0  0  0  0  0  0  0  0  0  0
    8.1040   -1.9848   -3.1314 N   0  0  0  0  0  0  0  0  0  0  0  0
    8.4156   -1.3764   -1.9633 C   0  0  0  0  0  0  0  0  0  0  0  0
    7.2296   -1.0485   -1.0335 C   0  0  0  0  0  0  0  0  0  0  0  0
    7.1570   -2.0326    0.0227 N   0  0  0  0  0  0  0  0  0  0  0  0
    6.4270   -3.1469   -0.1240 C   0  0  0  0  0  0  0  0  0  0  0  0
    6.3383   -3.9705    1.1630 C   0  0  0  0  0  0  0  0  0  0  0  0
    6.0527   -5.4533    0.8960 C   0  0  0  0  0  0  0  0  0  0  0  0
    5.7258   -6.1865    2.1935 C   0  0  0  0  0  0  0  0  0  0  0  0
    7.2821   -6.0663    0.2272 C   0  0  0  0  0  0  0  0  0  0  0  0
    5.3395   -3.3133    2.0075 N   0  0  0  0  0  0  0  0  0  0  0  0
    5.8113   -2.5063    2.9744 C   0  0  0  0  0  0  0  0  0  0  0  0
    4.8491   -1.9033    4.0104 C   0  0  0  0  0  0  0  0  0  0  0  0
    4.6503   -2.9439    5.1201 C   0  0  0  0  0  0  0  0  0  0  0  0
    3.8247   -2.3483    6.2616 C   0  0  0  0  0  0  0  0  0  0  0  0
    4.4375   -1.1352    6.7447 N   0  0  0  0  0  0  0  0  0  0  0  0
    4.9587   -1.0918    7.9972 C   0  0  0  0  0  0  0  0  0  0  0  0
    5.5787    0.1616    8.3552 C   0  0  0  0  0  0  0  0  0  0  0  0
    6.1274    1.1277    8.8183 C   0  0  0  0  0  0  0  0  0  0  0  0
    6.7151    2.3858    9.2714 C   0  0  0  0  0  0  0  0  0  0  0  0
    7.9279    2.0858   10.0361 N   0  0  0  0  0  0  0  0  0  0  0  0
    8.8590    1.2060    9.3629 C   0  0  0  0  0  0  0  0  0  0  0  0
    8.6149    3.2344   10.5822 C   0  0  0  0  0  0  0  0  0  0  0  0
    5.6666    3.0370   10.1912 C   0  0  0  0  0  0  0  0  0  0  0  0
    6.9431    3.2752    8.0294 C   0  0  0  0  0  0  0  0  0  0  0  0
    4.8915   -2.0223    8.7787 O   0  0  0  0  0  0  0  0  0  0  0  0
    4.5852   -0.1065    5.7473 C   0  0  0  0  0  0  0  0  0  0  0  0
    5.4389   -0.6124    4.5821 C   0  0  0  0  0  0  0  0  0  0  0  0
    7.0106   -2.3331    3.1488 O   0  0  0  0  0  0  0  0  0  0  0  0
    3.9700   -3.3311    1.5366 C   0  0  0  0  0  0  0  0  0  0  0  0
    5.8432   -3.4390   -1.1528 O   0  0  0  0  0  0  0  0  0  0  0  0
    7.3767    0.3681   -0.4760 C   0  0  0  0  0  0  0  0  0  0  0  0
    6.0319    1.0258   -0.1554 C   0  0  0  0  0  0  0  0  0  0  0  0
    5.1924    1.2948   -1.4159 C   0  0  0  0  0  0  0  0  0  0  0  0
    3.9525    1.9322   -1.0261 N   0  0  0  0  0  0  0  0  0  0  0  0
    3.2285    1.0626   -0.1134 C   0  0  0  0  0  0  0  0  0  0  0  0
    4.1012    0.8085    1.1135 C   0  0  0  0  0  0  0  0  0  0  0  0
    5.3257    0.2081    0.7575 O   0  0  0  0  0  0  0  0  0  0  0  0
    9.5653   -1.1488   -1.6352 O   0  0  0  0  0  0  0  0  0  0  0  0
    9.0664   -2.0515   -4.2160 C   0  0  0  0  0  0  0  0  0  0  0  0
    8.7815   -0.9171   -5.2094 C   0  0  0  0  0  0  0  0  0  0  0  0
    7.3075   -0.9125   -5.6300 C   0  0  0  0  0  0  0  0  0  0  0  0
    4.1442   -1.3283   -3.7980 O   0  0  0  0  0  0  0  0  0  0  0  0
    2.6543    3.0541   -4.3237 C   0  0  0  0  0  0  0  0  0  0  0  0
    1.6502    3.9436   -3.8755 C   0  0  0  0  0  0  0  0  0  0  0  0
    1.4058    4.1313   -2.5203 C   0  0  0  0  0  0  0  0  0  0  0  0
    2.1753    3.4316   -1.6228 C   0  0  0  0  0  0  0  0  0  0  0  0
    3.1881    2.5458   -2.0385 C   0  0  0  0  0  0  0  0  0  0  0  0
    3.4305    2.3639   -3.3892 C   0  0  0  0  0  0  0  0  0  0  0  0
    3.6008   -1.5880    3.4804 F   0  0  0  0  0  0  0  0  0  0  0  0
    4.3396    8.0132   -7.4012 H   0  0  0  0  0  0  0  0  0  0  0  0
    3.6886    7.5183   -8.9756 H   0  0  0  0  0  0  0  0  0  0  0  0
    2.6153    8.1994   -7.7485 H   0  0  0  0  0  0  0  0  0  0  0  0
    3.0236    6.2089   -6.2933 H   0  0  0  0  0  0  0  0  0  0  0  0
    4.9847    5.1849   -5.6641 H   0  0  0  0  0  0  0  0  0  0  0  0
    6.0713    4.6171   -6.9603 H   0  0  0  0  0  0  0  0  0  0  0  0
    5.8310    6.3607   -6.7070 H   0  0  0  0  0  0  0  0  0  0  0  0
    0.4084    5.9455  -10.8366 H   0  0  0  0  0  0  0  0  0  0  0  0
   -1.0314    4.1418   -9.8619 H   0  0  0  0  0  0  0  0  0  0  0  0
   -0.4234    3.2416   -7.6207 H   0  0  0  0  0  0  0  0  0  0  0  0
    0.1992    6.1851   -4.1069 H   0  0  0  0  0  0  0  0  0  0  0  0
    0.0418    6.0721   -5.8703 H   0  0  0  0  0  0  0  0  0  0  0  0
   -1.3765    4.2403   -3.8665 H   0  0  0  0  0  0  0  0  0  0  0  0
   -2.1275    5.6066   -4.7014 H   0  0  0  0  0  0  0  0  0  0  0  0
   -1.5780    4.2023   -5.6195 H   0  0  0  0  0  0  0  0  0  0  0  0
    3.6297    2.9540   -7.6079 H   0  0  0  0  0  0  0  0  0  0  0  0
    4.5179    2.2468   -6.2566 H   0  0  0  0  0  0  0  0  0  0  0  0
    0.9478    1.2659   -6.6286 H   0  0  0  0  0  0  0  0  0  0  0  0
    1.3888    1.6567   -8.2971 H   0  0  0  0  0  0  0  0  0  0  0  0
    1.2307   -0.0281   -7.7951 H   0  0  0  0  0  0  0  0  0  0  0  0
    4.9139    0.4578   -8.0611 H   0  0  0  0  0  0  0  0  0  0  0  0
    3.5595   -0.5405   -8.5903 H   0  0  0  0  0  0  0  0  0  0  0  0
    3.6991    1.1270   -9.1540 H   0  0  0  0  0  0  0  0  0  0  0  0
    2.7190    0.3191   -5.0407 H   0  0  0  0  0  0  0  0  0  0  0  0
    2.8038   -1.0194   -6.2006 H   0  0  0  0  0  0  0  0  0  0  0  0
    6.6773   -0.0183   -3.7754 H   0  0  0  0  0  0  0  0  0  0  0  0
    6.1452   -2.4769   -2.9571 H   0  0  0  0  0  0  0  0  0  0  0  0
    6.2882   -1.1335   -1.5806 H   0  0  0  0  0  0  0  0  0  0  0  0
    7.5999   -1.8281    0.9069 H   0  0  0  0  0  0  0  0  0  0  0  0
    7.2859   -3.8910    1.7057 H   0  0  0  0  0  0  0  0  0  0  0  0
    5.2151   -5.5438    0.1984 H   0  0  0  0  0  0  0  0  0  0  0  0
    4.8112   -5.8080    2.6421 H   0  0  0  0  0  0  0  0  0  0  0  0
    5.5958   -7.2482    1.9989 H   0  0  0  0  0  0  0  0  0  0  0  0
    6.5363   -6.0642    2.9090 H   0  0  0  0  0  0  0  0  0  0  0  0
    8.1496   -5.9956    0.8802 H   0  0  0  0  0  0  0  0  0  0  0  0
    7.1028   -7.1152    0.0047 H   0  0  0  0  0  0  0  0  0  0  0  0
    7.5034   -5.5513   -0.7040 H   0  0  0  0  0  0  0  0  0  0  0  0
    4.1448   -3.8230    4.7175 H   0  0  0  0  0  0  0  0  0  0  0  0
    5.6338   -3.2421    5.4852 H   0  0  0  0  0  0  0  0  0  0  0  0
    2.8137   -2.1205    5.9039 H   0  0  0  0  0  0  0  0  0  0  0  0
    3.7655   -3.0489    7.0968 H   0  0  0  0  0  0  0  0  0  0  0  0
    9.6013    0.8749   10.0891 H   0  0  0  0  0  0  0  0  0  0  0  0
    8.3305    0.3324    8.9875 H   0  0  0  0  0  0  0  0  0  0  0  0
    9.3907    1.6889    8.5277 H   0  0  0  0  0  0  0  0  0  0  0  0
    7.9214    3.8701   11.1255 H   0  0  0  0  0  0  0  0  0  0  0  0
    9.3633    2.8728   11.2879 H   0  0  0  0  0  0  0  0  0  0  0  0
    9.1332    3.8375    9.8201 H   0  0  0  0  0  0  0  0  0  0  0  0
    5.6395    2.5082   11.1399 H   0  0  0  0  0  0  0  0  0  0  0  0
    5.8954    4.0848   10.3673 H   0  0  0  0  0  0  0  0  0  0  0  0
    4.6842    2.9756    9.7283 H   0  0  0  0  0  0  0  0  0  0  0  0
    7.3337    4.2452    8.3274 H   0  0  0  0  0  0  0  0  0  0  0  0
    7.6443    2.8045    7.3439 H   0  0  0  0  0  0  0  0  0  0  0  0
    6.0006    3.4266    7.5085 H   0  0  0  0  0  0  0  0  0  0  0  0
    3.5902    0.1678    5.3742 H   0  0  0  0  0  0  0  0  0  0  0  0
    5.0479    0.7716    6.2008 H   0  0  0  0  0  0  0  0  0  0  0  0
    6.4557   -0.8222    4.9124 H   0  0  0  0  0  0  0  0  0  0  0  0
    5.4789    0.1367    3.7901 H   0  0  0  0  0  0  0  0  0  0  0  0
    3.2862   -3.6781    2.3115 H   0  0  0  0  0  0  0  0  0  0  0  0
    3.6600   -2.3383    1.2084 H   0  0  0  0  0  0  0  0  0  0  0  0
    3.9051   -3.9993    0.6836 H   0  0  0  0  0  0  0  0  0  0  0  0
    7.9838    0.3281    0.4293 H   0  0  0  0  0  0  0  0  0  0  0  0
    7.9049    0.9923   -1.1989 H   0  0  0  0  0  0  0  0  0  0  0  0
    6.2225    2.0034    0.3235 H   0  0  0  0  0  0  0  0  0  0  0  0
    5.7484    1.9700   -2.0703 H   0  0  0  0  0  0  0  0  0  0  0  0
    4.9947    0.3472   -1.9413 H   0  0  0  0  0  0  0  0  0  0  0  0
    2.2938    1.5325    0.1891 H   0  0  0  0  0  0  0  0  0  0  0  0
    2.9998    0.0976   -0.5975 H   0  0  0  0  0  0  0  0  0  0  0  0
    4.2940    1.7661    1.6229 H   0  0  0  0  0  0  0  0  0  0  0  0
    3.6065    0.1232    1.8019 H   0  0  0  0  0  0  0  0  0  0  0  0
   10.0660   -1.9603   -3.7917 H   0  0  0  0  0  0  0  0  0  0  0  0
    8.9505   -3.0223   -4.7019 H   0  0  0  0  0  0  0  0  0  0  0  0
    9.0243    0.0351   -4.7311 H   0  0  0  0  0  0  0  0  0  0  0  0
    9.4212   -1.0299   -6.0847 H   0  0  0  0  0  0  0  0  0  0  0  0
    7.0845   -1.8074   -6.2116 H   0  0  0  0  0  0  0  0  0  0  0  0
    7.0868   -0.0342   -6.2361 H   0  0  0  0  0  0  0  0  0  0  0  0
    0.6453    4.8148   -2.1732 H   0  0  0  0  0  0  0  0  0  0  0  0
    2.0213    3.5800   -0.5650 H   0  0  0  0  0  0  0  0  0  0  0  0
    4.2108    1.7039   -3.7322 H   0  0  0  0  0  0  0  0  0  0  0  0
  1  2  1  0  0  0  0
  2  3  1  0  0  0  0
  2  5  1  0  0  0  0
  3  4  1  0  0  0  0
  5  6  2  0  0  0  0
  5 10  1  0  0  0  0
  6  7  1  0  0  0  0
  7  8  2  0  0  0  0
  8  9  1  0  0  0  0
  9 10  2  0  0  0  0
 10 11  1  0  0  0  0
 11 12  1  0  0  0  0
 11 15  2  0  0  0  0
 12 13  1  0  0  0  0
 12 68  1  0  0  0  0
 13 14  1  0  0  0  0
 15 16  1  0  0  0  0
 15 67  1  0  0  0  0
 16 17  1  0  0  0  0
 17 18  1  0  0  0  0
 17 19  1  0  0  0  0
 17 20  1  0  0  0  0
 20 21  1  0  0  0  0
 21 22  1  0  0  0  0
 22 23  1  0  0  0  0
 22 66  2  0  0  0  0
 23 24  1  0  0  0  0
 23 65  1  0  0  0  0
 24 25  1  0  0  0  0
 25 26  1  0  0  0  0
 25 63  1  0  0  0  0
 26 27  1  0  0  0  0
 26 62  2  0  0  0  0
 27 28  1  0  0  0  0
 27 55  1  0  0  0  0
 28 29  1  0  0  0  0
 29 30  1  0  0  0  0
 29 54  2  0  0  0  0
 30 31  1  0  0  0  0
 30 34  1  0  0  0  0
 31 32  1  0  0  0  0
 31 33  1  0  0  0  0
 34 35  1  0  0  0  0
 34 53  1  0  0  0  0
 35 36  1  0  0  0  0
 35 52  2  0  0  0  0
 36 37  1  0  0  0  0
 36 51  1  0  0  0  0
 36 73  1  0  0  0  0
 37 38  1  0  0  0  0
 38 39  1  0  0  0  0
 39 40  1  0  0  0  0
 39 50  1  0  0  0  0
 40 41  1  0  0  0  0
 40 49  2  0  0  0  0
 42 43  1  0  0  0  0
 43 44  1  0  0  0  0
 43 47  1  0  0  0  0
 43 48  1  0  0  0  0
 44 45  1  0  0  0  0
 44 46  1  0  0  0  0
 50 51  1  0  0  0  0
 55 56  1  0  0  0  0
 56 57  1  0  0  0  0
 56 61  1  0  0  0  0
 57 58  1  0  0  0  0
 58 59  1  0  0  0  0
 58 71  1  0  0  0  0
 59 60  1  0  0  0  0
 60 61  1  0  0  0  0
 63 64  1  0  0  0  0
 64 65  1  0  0  0  0
 67 68  2  0  0  0  0
 67 72  1  0  0  0  0
 68 69  1  0  0  0  0
 69 70  2  0  0  0  0
 70 71  1  0  0  0  0
 71 72  2  0  0  0  0
  1 74  1  0  0  0  0
  1 75  1  0  0  0  0
  1 76  1  0  0  0  0
  2 77  1  0  0  0  0
  4 78  1  0  0  0  0
  4 79  1  0  0  0  0
  4 80  1  0  0  0  0
  7 81  1  0  0  0  0
  8 82  1  0  0  0  0
  9 83  1  0  0  0  0
 13 84  1  0  0  0  0
 13 85  1  0  0  0  0
 14 86  1  0  0  0  0
 14 87  1  0  0  0  0
 14 88  1  0  0  0  0
 16 89  1  0  0  0  0
 16 90  1  0  0  0  0
 18 91  1  0  0  0  0
 18 92  1  0  0  0  0
 18 93  1  0  0  0  0
 19 94  1  0  0  0  0
 19 95  1  0  0  0  0
 19 96  1  0  0  0  0
 20 97  1  0  0  0  0
 20 98  1  0  0  0  0
 23 99  1  0  0  0  0
 24100  1  0  0  0  0
 27101  1  0  0  0  0
 28102  1  0  0  0  0
 30103  1  0  0  0  0
 31104  1  0  0  0  0
 32105  1  0  0  0  0
 32106  1  0  0  0  0
 32107  1  0  0  0  0
 33108  1  0  0  0  0
 33109  1  0  0  0  0
 33110  1  0  0  0  0
 37111  1  0  0  0  0
 37112  1  0  0  0  0
 38113  1  0  0  0  0
 38114  1  0  0  0  0
 45115  1  0  0  0  0
 45116  1  0  0  0  0
 45117  1  0  0  0  0
 46118  1  0  0  0  0
 46119  1  0  0  0  0
 46120  1  0  0  0  0
 47121  1  0  0  0  0
 47122  1  0  0  0  0
 47123  1  0  0  0  0
 48124  1  0  0  0  0
 48125  1  0  0  0  0
 48126  1  0  0  0  0
 50127  1  0  0  0  0
 50128  1  0  0  0  0
 51129  1  0  0  0  0
 51130  1  0  0  0  0
 53131  1  0  0  0  0
 53132  1  0  0  0  0
 53133  1  0  0  0  0
 55134  1  0  0  0  0
 55135  1  0  0  0  0
 56136  1  0  0  0  0
 57137  1  0  0  0  0
 57138  1  0  0  0  0
 59139  1  0  0  0  0
 59140  1  0  0  0  0
 60141  1  0  0  0  0
 60142  1  0  0  0  0
 63143  1  0  0  0  0
 63144  1  0  0  0  0
 64145  1  0  0  0  0
 64146  1  0  0  0  0
 65147  1  0  0  0  0
 65148  1  0  0  0  0
 69149  1  0  0  0  0
 70150  1  0  0  0  0
 72151  1  0  0  0  0
 41 42  3  0  0  0  0
M  END
$$$$
