mol_ETKDG1_9
     RDKit          3D

151157  0  0  0  0  0  0  0  0999 V2000
    2.7553    8.2322   -7.4165 C   0  0  0  0  0  0  0  0  0  0  0  0
    2.6379    6.7081   -7.2949 C   0  0  2  0  0  0  0  0  0  0  0  0
    3.8805    6.0568   -7.6179 O   0  0  0  0  0  0  0  0  0  0  0  0
    4.2926    6.1581   -8.9740 C   0  0  0  0  0  0  0  0  0  0  0  0
    1.4292    6.1441   -8.0408 C   0  0  0  0  0  0  0  0  0  0  0  0
    1.1466    6.7137   -9.2517 N   0  0  0  0  0  0  0  0  0  0  0  0
    0.1013    6.2330   -9.9558 C   0  0  0  0  0  0  0  0  0  0  0  0
   -0.7093    5.2053   -9.5178 C   0  0  0  0  0  0  0  0  0  0  0  0
   -0.4235    4.6287   -8.2853 C   0  0  0  0  0  0  0  0  0  0  0  0
    0.6613    5.0842   -7.5246 C   0  0  0  0  0  0  0  0  0  0  0  0
    0.9431    4.4396   -6.2347 C   0  0  0  0  0  0  0  0  0  0  0  0
    0.2607    4.7368   -5.0697 N   0  0  0  0  0  0  0  0  0  0  0  0
   -0.8805    5.6367   -4.9538 C   0  0  0  0  0  0  0  0  0  0  0  0
   -0.4735    7.0669   -4.6473 C   0  0  0  0  0  0  0  0  0  0  0  0
    1.9211    3.4968   -5.9207 C   0  0  0  0  0  0  0  0  0  0  0  0
    2.8941    2.8722   -6.8939 C   0  0  0  0  0  0  0  0  0  0  0  0
    2.5196    1.4771   -7.4749 C   0  0  0  0  0  0  0  0  0  0  0  0
    3.4640    1.2064   -8.6711 C   0  0  0  0  0  0  0  0  0  0  0  0
    1.0769    1.4239   -8.0037 C   0  0  0  0  0  0  0  0  0  0  0  0
    2.7034    0.3522   -6.4329 C   0  0  0  0  0  0  0  0  0  0  0  0
    4.0824    0.2845   -6.0420 O   0  0  0  0  0  0  0  0  0  0  0  0
    4.3635   -0.6413   -5.0847 C   0  0  0  0  0  0  0  0  0  0  0  0
    5.8482   -0.5732   -4.7199 C   0  0  1  0  0  0  0  0  0  0  0  0
    6.1435   -1.5746   -3.6816 N   0  0  0  0  0  0  0  0  0  0  0  0
    7.4789   -1.4569   -3.2281 N   0  0  0  0  0  0  0  0  0  0  0  0
    7.8540   -1.4569   -1.8752 C   0  0  0  0  0  0  0  0  0  0  0  0
    6.7770   -1.0404   -0.8339 C   0  0  1  0  0  0  0  0  0  0  0  0
    7.1029   -1.6042    0.4745 N   0  0  0  0  0  0  0  0  0  0  0  0
    6.9728   -2.9632    0.6934 C   0  0  0  0  0  0  0  0  0  0  0  0
    7.1736   -3.3658    2.1707 C   0  0  2  0  0  0  0  0  0  0  0  0
    7.7525   -4.7973    2.3233 C   0  0  0  0  0  0  0  0  0  0  0  0
    7.8550   -5.1935    3.8021 C   0  0  0  0  0  0  0  0  0  0  0  0
    9.1469   -4.8874    1.6864 C   0  0  0  0  0  0  0  0  0  0  0  0
    5.8874   -3.1625    2.8918 N   0  0  0  0  0  0  0  0  0  0  0  0
    5.7033   -1.9132    3.4999 C   0  0  0  0  0  0  0  0  0  0  0  0
    4.4695   -1.7031    4.4083 C   0  0  0  0  0  0  0  0  0  0  0  0
    4.5341   -2.6637    5.6121 C   0  0  0  0  0  0  0  0  0  0  0  0
    3.4268   -2.3613    6.6180 C   0  0  0  0  0  0  0  0  0  0  0  0
    3.4943   -0.9615    7.0040 N   0  0  0  0  0  0  0  0  0  0  0  0
    4.0776   -0.6277    8.2218 C   0  0  0  0  0  0  0  0  0  0  0  0
    4.4648    0.7480    8.4483 C   0  0  0  0  0  0  0  0  0  0  0  0
    4.8409    1.8781    8.6067 C   0  0  0  0  0  0  0  0  0  0  0  0
    5.3174    3.2736    8.7561 C   0  0  0  0  0  0  0  0  0  0  0  0
    6.6618    3.4795    8.1490 N   0  0  0  0  0  0  0  0  0  0  0  0
    6.7348    3.1718    6.7165 C   0  0  0  0  0  0  0  0  0  0  0  0
    7.7484    2.7817    8.8441 C   0  0  0  0  0  0  0  0  0  0  0  0
    4.2902    4.2175    8.0869 C   0  0  0  0  0  0  0  0  0  0  0  0
    5.3167    3.6323   10.2606 C   0  0  0  0  0  0  0  0  0  0  0  0
    4.3177   -1.4406    9.1057 O   0  0  0  0  0  0  0  0  0  0  0  0
    3.3112   -0.0281    5.8992 C   0  0  0  0  0  0  0  0  0  0  0  0
    4.4174   -0.2359    4.8749 C   0  0  0  0  0  0  0  0  0  0  0  0
    6.5448   -1.0171    3.3589 O   0  0  0  0  0  0  0  0  0  0  0  0
    4.7362   -3.9373    2.4259 C   0  0  0  0  0  0  0  0  0  0  0  0
    6.6414   -3.7538   -0.1856 O   0  0  0  0  0  0  0  0  0  0  0  0
    6.7578    0.5001   -0.7695 C   0  0  0  0  0  0  0  0  0  0  0  0
    5.4001    1.1146   -0.3936 C   0  0  1  0  0  0  0  0  0  0  0  0
    4.5267    1.3784   -1.6462 C   0  0  0  0  0  0  0  0  0  0  0  0
    3.2434    1.9758   -1.2312 N   0  0  0  0  0  0  0  0  0  0  0  0
    2.5412    1.1287   -0.2404 C   0  0  0  0  0  0  0  0  0  0  0  0
    3.4735    0.8524    0.9526 C   0  0  0  0  0  0  0  0  0  0  0  0
    4.7200    0.2637    0.5465 O   0  0  0  0  0  0  0  0  0  0  0  0
    9.0256   -1.6496   -1.5328 O   0  0  0  0  0  0  0  0  0  0  0  0
    8.4743   -1.7494   -4.2658 C   0  0  0  0  0  0  0  0  0  0  0  0
    8.2323   -0.8723   -5.4986 C   0  0  0  0  0  0  0  0  0  0  0  0
    6.7575   -0.8649   -5.9205 C   0  0  0  0  0  0  0  0  0  0  0  0
    3.5322   -1.3549   -4.5378 O   0  0  0  0  0  0  0  0  0  0  0  0
    1.8960    3.3233   -4.4929 C   0  0  0  0  0  0  0  0  0  0  0  0
    0.8441    4.0908   -3.9973 C   0  0  0  0  0  0  0  0  0  0  0  0
    0.5515    4.1415   -2.6292 C   0  0  0  0  0  0  0  0  0  0  0  0
    1.3623    3.4106   -1.7500 C   0  0  0  0  0  0  0  0  0  0  0  0
    2.4394    2.6244   -2.1786 C   0  0  0  0  0  0  0  0  0  0  0  0
    2.6931    2.6013   -3.5639 C   0  0  0  0  0  0  0  0  0  0  0  0
    3.2996   -1.9404    3.7315 F   0  0  0  0  0  0  0  0  0  0  0  0
    1.8615    8.7260   -7.0181 H   0  0  0  0  0  0  0  0  0  0  0  0
    3.6304    8.5912   -6.8633 H   0  0  0  0  0  0  0  0  0  0  0  0
    2.8804    8.5617   -8.4526 H   0  0  0  0  0  0  0  0  0  0  0  0
    2.4970    6.5258   -6.2237 H   0  0  0  0  0  0  0  0  0  0  0  0
    4.4273    7.1989   -9.2778 H   0  0  0  0  0  0  0  0  0  0  0  0
    5.2615    5.6580   -9.0646 H   0  0  0  0  0  0  0  0  0  0  0  0
    3.5949    5.6473   -9.6419 H   0  0  0  0  0  0  0  0  0  0  0  0
   -0.0744    6.7146  -10.9139 H   0  0  0  0  0  0  0  0  0  0  0  0
   -1.5369    4.8526  -10.1210 H   0  0  0  0  0  0  0  0  0  0  0  0
   -1.0398    3.8089   -7.9220 H   0  0  0  0  0  0  0  0  0  0  0  0
   -1.4570    5.5904   -5.8821 H   0  0  0  0  0  0  0  0  0  0  0  0
   -1.5362    5.2469   -4.1682 H   0  0  0  0  0  0  0  0  0  0  0  0
    0.0652    7.1302   -3.6963 H   0  0  0  0  0  0  0  0  0  0  0  0
    0.1774    7.4740   -5.4273 H   0  0  0  0  0  0  0  0  0  0  0  0
   -1.3603    7.7056   -4.5786 H   0  0  0  0  0  0  0  0  0  0  0  0
    3.0158    3.5629   -7.7360 H   0  0  0  0  0  0  0  0  0  0  0  0
    3.8839    2.8326   -6.4219 H   0  0  0  0  0  0  0  0  0  0  0  0
    4.5180    1.2737   -8.3801 H   0  0  0  0  0  0  0  0  0  0  0  0
    3.2968    0.2087   -9.0907 H   0  0  0  0  0  0  0  0  0  0  0  0
    3.3013    1.9336   -9.4746 H   0  0  0  0  0  0  0  0  0  0  0  0
    0.3437    1.5889   -7.2097 H   0  0  0  0  0  0  0  0  0  0  0  0
    0.9187    2.1689   -8.7880 H   0  0  0  0  0  0  0  0  0  0  0  0
    0.8564    0.4447   -8.4452 H   0  0  0  0  0  0  0  0  0  0  0  0
    2.0712    0.5259   -5.5555 H   0  0  0  0  0  0  0  0  0  0  0  0
    2.4233   -0.6147   -6.8705 H   0  0  0  0  0  0  0  0  0  0  0  0
    6.0333    0.4319   -4.3177 H   0  0  0  0  0  0  0  0  0  0  0  0
    5.4269   -1.5964   -2.9578 H   0  0  0  0  0  0  0  0  0  0  0  0
    5.8006   -1.4443   -1.1072 H   0  0  0  0  0  0  0  0  0  0  0  0
    6.9451   -1.0206    1.2951 H   0  0  0  0  0  0  0  0  0  0  0  0
    7.9229   -2.6832    2.5958 H   0  0  0  0  0  0  0  0  0  0  0  0
    7.1121   -5.5285    1.8165 H   0  0  0  0  0  0  0  0  0  0  0  0
    6.8662   -5.2443    4.2714 H   0  0  0  0  0  0  0  0  0  0  0  0
    8.3167   -6.1817    3.9100 H   0  0  0  0  0  0  0  0  0  0  0  0
    8.4615   -4.4731    4.3641 H   0  0  0  0  0  0  0  0  0  0  0  0
    9.6091   -5.8608    1.8878 H   0  0  0  0  0  0  0  0  0  0  0  0
    9.0945   -4.7705    0.5984 H   0  0  0  0  0  0  0  0  0  0  0  0
    9.8160   -4.1109    2.0774 H   0  0  0  0  0  0  0  0  0  0  0  0
    4.4323   -3.7050    5.2965 H   0  0  0  0  0  0  0  0  0  0  0  0
    5.5116   -2.5732    6.1028 H   0  0  0  0  0  0  0  0  0  0  0  0
    2.4389   -2.5467    6.1790 H   0  0  0  0  0  0  0  0  0  0  0  0
    3.5271   -3.0158    7.4918 H   0  0  0  0  0  0  0  0  0  0  0  0
    7.7301    3.4132    6.3244 H   0  0  0  0  0  0  0  0  0  0  0  0
    6.5402    2.1159    6.5040 H   0  0  0  0  0  0  0  0  0  0  0  0
    6.0396    3.7802    6.1296 H   0  0  0  0  0  0  0  0  0  0  0  0
    7.8552    3.1228    9.8799 H   0  0  0  0  0  0  0  0  0  0  0  0
    7.6159    1.6943    8.8452 H   0  0  0  0  0  0  0  0  0  0  0  0
    8.7140    3.0024    8.3720 H   0  0  0  0  0  0  0  0  0  0  0  0
    3.3250    4.1908    8.6095 H   0  0  0  0  0  0  0  0  0  0  0  0
    4.6371    5.2583    8.0985 H   0  0  0  0  0  0  0  0  0  0  0  0
    4.0792    3.9387    7.0480 H   0  0  0  0  0  0  0  0  0  0  0  0
    5.9085    2.9304   10.8587 H   0  0  0  0  0  0  0  0  0  0  0  0
    5.7091    4.6423   10.4305 H   0  0  0  0  0  0  0  0  0  0  0  0
    4.3022    3.6004   10.6765 H   0  0  0  0  0  0  0  0  0  0  0  0
    2.3289   -0.2274    5.4533 H   0  0  0  0  0  0  0  0  0  0  0  0
    3.2983    1.0081    6.2475 H   0  0  0  0  0  0  0  0  0  0  0  0
    5.3757    0.0555    5.3216 H   0  0  0  0  0  0  0  0  0  0  0  0
    4.2392    0.4242    4.0186 H   0  0  0  0  0  0  0  0  0  0  0  0
    3.9565   -3.9952    3.1839 H   0  0  0  0  0  0  0  0  0  0  0  0
    4.3191   -3.4484    1.5410 H   0  0  0  0  0  0  0  0  0  0  0  0
    5.0337   -4.9589    2.1813 H   0  0  0  0  0  0  0  0  0  0  0  0
    7.4886    0.8200   -0.0143 H   0  0  0  0  0  0  0  0  0  0  0  0
    7.1024    0.9460   -1.7098 H   0  0  0  0  0  0  0  0  0  0  0  0
    5.5948    2.0779    0.0998 H   0  0  0  0  0  0  0  0  0  0  0  0
    5.0765    2.0579   -2.3082 H   0  0  0  0  0  0  0  0  0  0  0  0
    4.3310    0.4389   -2.1750 H   0  0  0  0  0  0  0  0  0  0  0  0
    1.6281    1.5910    0.1483 H   0  0  0  0  0  0  0  0  0  0  0  0
    2.2631    0.1817   -0.7184 H   0  0  0  0  0  0  0  0  0  0  0  0
    3.6848    1.7759    1.5052 H   0  0  0  0  0  0  0  0  0  0  0  0
    2.9918    0.1550    1.6456 H   0  0  0  0  0  0  0  0  0  0  0  0
    9.4883   -1.5830   -3.8883 H   0  0  0  0  0  0  0  0  0  0  0  0
    8.3855   -2.8122   -4.5212 H   0  0  0  0  0  0  0  0  0  0  0  0
    8.5302    0.1576   -5.2632 H   0  0  0  0  0  0  0  0  0  0  0  0
    8.8628   -1.2066   -6.3296 H   0  0  0  0  0  0  0  0  0  0  0  0
    6.4981   -1.8356   -6.3613 H   0  0  0  0  0  0  0  0  0  0  0  0
    6.6081   -0.1174   -6.7072 H   0  0  0  0  0  0  0  0  0  0  0  0
   -0.2537    4.7536   -2.2371 H   0  0  0  0  0  0  0  0  0  0  0  0
    1.1574    3.5163   -0.6866 H   0  0  0  0  0  0  0  0  0  0  0  0
    3.5194    2.0305   -3.9634 H   0  0  0  0  0  0  0  0  0  0  0  0
  1  2  1  0
  2  3  1  0
  2  5  1  0
  3  4  1  0
  5  6  2  0
  5 10  1  0
  6  7  1  0
  7  8  2  0
  8  9  1  0
  9 10  2  0
 10 11  1  0
 11 12  1  0
 11 15  2  0
 12 13  1  0
 12 68  1  0
 13 14  1  0
 15 16  1  0
 15 67  1  0
 16 17  1  0
 17 18  1  0
 17 19  1  0
 17 20  1  0
 20 21  1  0
 21 22  1  0
 22 23  1  0
 22 66  2  0
 23 24  1  0
 23 65  1  0
 24 25  1  0
 25 26  1  0
 25 63  1  0
 26 27  1  0
 26 62  2  0
 27 28  1  0
 27 55  1  0
 28 29  1  0
 29 30  1  0
 29 54  2  0
 30 31  1  0
 30 34  1  0
 31 32  1  0
 31 33  1  0
 34 35  1  0
 34 53  1  0
 35 36  1  0
 35 52  2  0
 36 37  1  0
 36 51  1  0
 36 73  1  0
 37 38  1  0
 38 39  1  0
 39 40  1  0
 39 50  1  0
 40 41  1  0
 40 49  2  0
 42 43  1  0
 43 44  1  0
 43 47  1  0
 43 48  1  0
 44 45  1  0
 44 46  1  0
 50 51  1  0
 55 56  1  0
 56 57  1  0
 56 61  1  0
 57 58  1  0
 58 59  1  0
 58 71  1  0
 59 60  1  0
 60 61  1  0
 63 64  1  0
 64 65  1  0
 67 68  2  0
 67 72  1  0
 68 69  1  0
 69 70  2  0
 70 71  1  0
 71 72  2  0
  1 74  1  0
  1 75  1  0
  1 76  1  0
  2 77  1  1
  4 78  1  0
  4 79  1  0
  4 80  1  0
  7 81  1  0
  8 82  1  0
  9 83  1  0
 13 84  1  0
 13 85  1  0
 14 86  1  0
 14 87  1  0
 14 88  1  0
 16 89  1  0
 16 90  1  0
 18 91  1  0
 18 92  1  0
 18 93  1  0
 19 94  1  0
 19 95  1  0
 19 96  1  0
 20 97  1  0
 20 98  1  0
 23 99  1  1
 24100  1  0
 27101  1  6
 28102  1  0
 30103  1  1
 31104  1  0
 32105  1  0
 32106  1  0
 32107  1  0
 33108  1  0
 33109  1  0
 33110  1  0
 37111  1  0
 37112  1  0
 38113  1  0
 38114  1  0
 45115  1  0
 45116  1  0
 45117  1  0
 46118  1  0
 46119  1  0
 46120  1  0
 47121  1  0
 47122  1  0
 47123  1  0
 48124  1  0
 48125  1  0
 48126  1  0
 50127  1  0
 50128  1  0
 51129  1  0
 51130  1  0
 53131  1  0
 53132  1  0
 53133  1  0
 55134  1  0
 55135  1  0
 56136  1  1
 57137  1  0
 57138  1  0
 59139  1  0
 59140  1  0
 60141  1  0
 60142  1  0
 63143  1  0
 63144  1  0
 64145  1  0
 64146  1  0
 65147  1  0
 65148  1  0
 69149  1  0
 70150  1  0
 72151  1  0
 41 42  3  0
M  END
$$$$
