mol_bioactive_4
     RDKit          3D

151157  0  0  0  0  0  0  0  0999 V2000
    2.1017    7.6510   -7.7476 C   0  0  0  0  0  0  0  0  0  0  0  0
    1.9915    6.1821   -7.3244 C   0  0  2  0  0  0  0  0  0  0  0  0
    3.1895    5.4843   -7.6981 O   0  0  0  0  0  0  0  0  0  0  0  0
    4.2238    5.6111   -6.7324 C   0  0  0  0  0  0  0  0  0  0  0  0
    0.7879    5.4891   -7.9611 C   0  0  0  0  0  0  0  0  0  0  0  0
    0.3645    5.9740   -9.1668 N   0  0  0  0  0  0  0  0  0  0  0  0
   -0.6938    5.3804   -9.7584 C   0  0  0  0  0  0  0  0  0  0  0  0
   -1.3846    4.3212   -9.2069 C   0  0  0  0  0  0  0  0  0  0  0  0
   -0.9589    3.8333   -7.9772 C   0  0  0  0  0  0  0  0  0  0  0  0
    0.1478    4.4045   -7.3342 C   0  0  0  0  0  0  0  0  0  0  0  0
    0.5675    3.8645   -6.0331 C   0  0  0  0  0  0  0  0  0  0  0  0
   -0.0239    4.2279   -4.8399 N   0  0  0  0  0  0  0  0  0  0  0  0
   -1.1870    5.0947   -4.6919 C   0  0  0  0  0  0  0  0  0  0  0  0
   -0.8195    6.5612   -4.5385 C   0  0  0  0  0  0  0  0  0  0  0  0
    1.5913    2.9624   -5.7368 C   0  0  0  0  0  0  0  0  0  0  0  0
    2.4873    2.2797   -6.7453 C   0  0  0  0  0  0  0  0  0  0  0  0
    2.0942    0.8353   -7.1807 C   0  0  0  0  0  0  0  0  0  0  0  0
    2.9527    0.4754   -8.4168 C   0  0  0  0  0  0  0  0  0  0  0  0
    0.6175    0.7236   -7.5938 C   0  0  0  0  0  0  0  0  0  0  0  0
    2.3697   -0.1960   -6.0686 C   0  0  0  0  0  0  0  0  0  0  0  0
    3.7742   -0.2144   -5.7758 O   0  0  0  0  0  0  0  0  0  0  0  0
    4.1445   -1.0526   -4.7707 C   0  0  0  0  0  0  0  0  0  0  0  0
    5.6481   -0.9265   -4.5186 C   0  0  1  0  0  0  0  0  0  0  0  0
    6.0560   -1.9052   -3.5038 N   0  0  0  0  0  0  0  0  0  0  0  0
    7.4030   -1.7108   -3.1330 N   0  0  0  0  0  0  0  0  0  0  0  0
    7.8549   -1.5633   -1.8166 C   0  0  0  0  0  0  0  0  0  0  0  0
    6.8089   -1.1845   -0.7293 C   0  0  1  0  0  0  0  0  0  0  0  0
    7.1689   -1.8205    0.5363 N   0  0  0  0  0  0  0  0  0  0  0  0
    7.0666   -3.1943    0.6468 C   0  0  0  0  0  0  0  0  0  0  0  0
    7.2757   -3.7261    2.0813 C   0  0  2  0  0  0  0  0  0  0  0  0
    7.8581   -5.1646    2.0871 C   0  0  0  0  0  0  0  0  0  0  0  0
    7.8992   -5.7513    3.5028 C   0  0  0  0  0  0  0  0  0  0  0  0
    9.2799   -5.1721    1.5094 C   0  0  0  0  0  0  0  0  0  0  0  0
    5.9857   -3.6085    2.8109 N   0  0  0  0  0  0  0  0  0  0  0  0
    5.7988   -2.4538    3.5766 C   0  0  0  0  0  0  0  0  0  0  0  0
    4.5808   -2.3849    4.5276 C   0  0  0  0  0  0  0  0  0  0  0  0
    4.6100   -3.5575    5.5264 C   0  0  0  0  0  0  0  0  0  0  0  0
    3.4657   -3.4326    6.5256 C   0  0  0  0  0  0  0  0  0  0  0  0
    3.5663   -2.1535    7.2058 N   0  0  0  0  0  0  0  0  0  0  0  0
    4.0468   -2.1283    8.5103 C   0  0  0  0  0  0  0  0  0  0  0  0
    4.3795   -0.8547    9.1068 C   0  0  0  0  0  0  0  0  0  0  0  0
    4.7037    0.1851    9.6160 C   0  0  0  0  0  0  0  0  0  0  0  0
    5.1451    1.4541   10.2515 C   0  0  0  0  0  0  0  0  0  0  0  0
    6.3266    1.9713    9.5085 N   0  0  0  0  0  0  0  0  0  0  0  0
    6.0421    2.3619    8.1245 C   0  0  0  0  0  0  0  0  0  0  0  0
    7.0432    3.0576   10.1790 C   0  0  0  0  0  0  0  0  0  0  0  0
    3.9485    2.4311   10.2745 C   0  0  0  0  0  0  0  0  0  0  0  0
    5.5095    1.1066   11.7140 C   0  0  0  0  0  0  0  0  0  0  0  0
    4.2219   -3.1355    9.1858 O   0  0  0  0  0  0  0  0  0  0  0  0
    3.4743   -0.9909    6.3290 C   0  0  0  0  0  0  0  0  0  0  0  0
    4.5809   -1.0386    5.2803 C   0  0  0  0  0  0  0  0  0  0  0  0
    6.6164   -1.5252    3.5242 O   0  0  0  0  0  0  0  0  0  0  0  0
    4.8426   -4.3349    2.2519 C   0  0  0  0  0  0  0  0  0  0  0  0
    6.7493   -3.9152   -0.2972 O   0  0  0  0  0  0  0  0  0  0  0  0
    6.8039    0.3503   -0.6040 C   0  0  0  0  0  0  0  0  0  0  0  0
    5.4399    0.9553   -0.2353 C   0  0  1  0  0  0  0  0  0  0  0  0
    4.5384    1.1613   -1.4826 C   0  0  0  0  0  0  0  0  0  0  0  0
    3.2493    1.7361   -1.0580 N   0  0  0  0  0  0  0  0  0  0  0  0
    2.5879    0.8858   -0.0370 C   0  0  0  0  0  0  0  0  0  0  0  0
    3.5421    0.6836    1.1520 C   0  0  0  0  0  0  0  0  0  0  0  0
    4.7980    0.1188    0.7443 O   0  0  0  0  0  0  0  0  0  0  0  0
    9.0582   -1.6148   -1.5390 O   0  0  0  0  0  0  0  0  0  0  0  0
    8.3468   -1.9867   -4.2204 C   0  0  0  0  0  0  0  0  0  0  0  0
    7.9910   -1.1435   -5.4500 C   0  0  0  0  0  0  0  0  0  0  0  0
    6.4896   -1.1944   -5.7737 C   0  0  0  0  0  0  0  0  0  0  0  0
    3.3727   -1.7216   -4.0952 O   0  0  0  0  0  0  0  0  0  0  0  0
    1.6859    2.8898   -4.3013 C   0  0  0  0  0  0  0  0  0  0  0  0
    0.6595    3.6717   -3.7773 C   0  0  0  0  0  0  0  0  0  0  0  0
    0.4673    3.8085   -2.3981 C   0  0  0  0  0  0  0  0  0  0  0  0
    1.3439    3.1386   -1.5377 C   0  0  0  0  0  0  0  0  0  0  0  0
    2.3976    2.3362   -1.9938 C   0  0  0  0  0  0  0  0  0  0  0  0
    2.5649    2.2396   -3.3895 C   0  0  0  0  0  0  0  0  0  0  0  0
    3.4060   -2.4451    3.8238 F   0  0  0  0  0  0  0  0  0  0  0  0
    1.1700    8.1937   -7.5551 H   0  0  0  0  0  0  0  0  0  0  0  0
    2.9031    8.1561   -7.1975 H   0  0  0  0  0  0  0  0  0  0  0  0
    2.3496    7.7429   -8.8114 H   0  0  0  0  0  0  0  0  0  0  0  0
    1.8696    6.1671   -6.2352 H   0  0  0  0  0  0  0  0  0  0  0  0
    3.8944    5.2327   -5.7611 H   0  0  0  0  0  0  0  0  0  0  0  0
    5.0769    5.0142   -7.0626 H   0  0  0  0  0  0  0  0  0  0  0  0
    4.5471    6.6516   -6.6410 H   0  0  0  0  0  0  0  0  0  0  0  0
   -0.9791    5.7988  -10.7193 H   0  0  0  0  0  0  0  0  0  0  0  0
   -2.2312    3.8824   -9.7221 H   0  0  0  0  0  0  0  0  0  0  0  0
   -1.4861    2.9985   -7.5227 H   0  0  0  0  0  0  0  0  0  0  0  0
   -1.8439    4.9531   -5.5560 H   0  0  0  0  0  0  0  0  0  0  0  0
   -1.7538    4.7495   -3.8205 H   0  0  0  0  0  0  0  0  0  0  0  0
   -0.1133    6.7152   -3.7172 H   0  0  0  0  0  0  0  0  0  0  0  0
   -0.3622    6.9509   -5.4509 H   0  0  0  0  0  0  0  0  0  0  0  0
   -1.7154    7.1549   -4.3349 H   0  0  0  0  0  0  0  0  0  0  0  0
    2.5241    2.9080   -7.6458 H   0  0  0  0  0  0  0  0  0  0  0  0
    3.5136    2.2867   -6.3581 H   0  0  0  0  0  0  0  0  0  0  0  0
    4.0243    0.5698   -8.2099 H   0  0  0  0  0  0  0  0  0  0  0  0
    2.7661   -0.5536   -8.7437 H   0  0  0  0  0  0  0  0  0  0  0  0
    2.7256    1.1356   -9.2620 H   0  0  0  0  0  0  0  0  0  0  0  0
   -0.0568    0.9472   -6.7631 H   0  0  0  0  0  0  0  0  0  0  0  0
    0.3898    1.3983   -8.4242 H   0  0  0  0  0  0  0  0  0  0  0  0
    0.3815   -0.2921   -7.9340 H   0  0  0  0  0  0  0  0  0  0  0  0
    1.8000    0.0421   -5.1639 H   0  0  0  0  0  0  0  0  0  0  0  0
    2.0736   -1.1983   -6.4032 H   0  0  0  0  0  0  0  0  0  0  0  0
    5.8208    0.0903   -4.1426 H   0  0  0  0  0  0  0  0  0  0  0  0
    5.3853   -1.9954   -2.7413 H   0  0  0  0  0  0  0  0  0  0  0  0
    5.8183   -1.5605   -0.9834 H   0  0  0  0  0  0  0  0  0  0  0  0
    7.0057   -1.3008    1.3990 H   0  0  0  0  0  0  0  0  0  0  0  0
    8.0181   -3.0821    2.5697 H   0  0  0  0  0  0  0  0  0  0  0  0
    7.2458   -5.8261    1.4618 H   0  0  0  0  0  0  0  0  0  0  0  0
    6.8910   -5.8827    3.9093 H   0  0  0  0  0  0  0  0  0  0  0  0
    8.3775   -6.7360    3.5016 H   0  0  0  0  0  0  0  0  0  0  0  0
    8.4599   -5.1038    4.1851 H   0  0  0  0  0  0  0  0  0  0  0  0
    9.6922   -6.1875    1.5048 H   0  0  0  0  0  0  0  0  0  0  0  0
    9.2974   -4.8049    0.4790 H   0  0  0  0  0  0  0  0  0  0  0  0
    9.9520   -4.5419    2.1034 H   0  0  0  0  0  0  0  0  0  0  0  0
    4.5188   -4.5233    5.0227 H   0  0  0  0  0  0  0  0  0  0  0  0
    5.5702   -3.5683    6.0557 H   0  0  0  0  0  0  0  0  0  0  0  0
    2.4957   -3.4735    6.0159 H   0  0  0  0  0  0  0  0  0  0  0  0
    3.4975   -4.2652    7.2360 H   0  0  0  0  0  0  0  0  0  0  0  0
    5.4104    3.2541    8.0614 H   0  0  0  0  0  0  0  0  0  0  0  0
    6.9773    2.5787    7.5956 H   0  0  0  0  0  0  0  0  0  0  0  0
    5.5644    1.5564    7.5587 H   0  0  0  0  0  0  0  0  0  0  0  0
    7.4706    2.7300   11.1305 H   0  0  0  0  0  0  0  0  0  0  0  0
    7.9000    3.3826    9.5770 H   0  0  0  0  0  0  0  0  0  0  0  0
    6.4105    3.9312   10.3558 H   0  0  0  0  0  0  0  0  0  0  0  0
    3.1200    2.0200   10.8658 H   0  0  0  0  0  0  0  0  0  0  0  0
    4.2175    3.3938   10.7201 H   0  0  0  0  0  0  0  0  0  0  0  0
    3.5492    2.6189    9.2714 H   0  0  0  0  0  0  0  0  0  0  0  0
    5.7129    2.0001   12.3138 H   0  0  0  0  0  0  0  0  0  0  0  0
    4.6913    0.5714   12.2122 H   0  0  0  0  0  0  0  0  0  0  0  0
    6.3895    0.4524   11.7618 H   0  0  0  0  0  0  0  0  0  0  0  0
    2.4908   -1.0174    5.8482 H   0  0  0  0  0  0  0  0  0  0  0  0
    3.5299   -0.0566    6.8932 H   0  0  0  0  0  0  0  0  0  0  0  0
    5.5477   -0.8840    5.7755 H   0  0  0  0  0  0  0  0  0  0  0  0
    4.4373   -0.2137    4.5741 H   0  0  0  0  0  0  0  0  0  0  0  0
    4.0185   -4.4141    2.9579 H   0  0  0  0  0  0  0  0  0  0  0  0
    4.4751   -3.7942    1.3738 H   0  0  0  0  0  0  0  0  0  0  0  0
    5.1368   -5.3481    1.9703 H   0  0  0  0  0  0  0  0  0  0  0  0
    7.5216    0.6381    0.1772 H   0  0  0  0  0  0  0  0  0  0  0  0
    7.1613    0.8278   -1.5243 H   0  0  0  0  0  0  0  0  0  0  0  0
    5.6222    1.9360    0.2250 H   0  0  0  0  0  0  0  0  0  0  0  0
    5.0545    1.8322   -2.1807 H   0  0  0  0  0  0  0  0  0  0  0  0
    4.3579    0.2010   -1.9783 H   0  0  0  0  0  0  0  0  0  0  0  0
    1.6571    1.3191    0.3413 H   0  0  0  0  0  0  0  0  0  0  0  0
    2.3496   -0.0847   -0.4891 H   0  0  0  0  0  0  0  0  0  0  0  0
    3.7329    1.6340    1.6654 H   0  0  0  0  0  0  0  0  0  0  0  0
    3.0920   -0.0026    1.8763 H   0  0  0  0  0  0  0  0  0  0  0  0
    9.3744   -1.7751   -3.9107 H   0  0  0  0  0  0  0  0  0  0  0  0
    8.2808   -3.0569   -4.4520 H   0  0  0  0  0  0  0  0  0  0  0  0
    8.2664   -0.0990   -5.2517 H   0  0  0  0  0  0  0  0  0  0  0  0
    8.5760   -1.4731   -6.3149 H   0  0  0  0  0  0  0  0  0  0  0  0
    6.2385   -2.1778   -6.1923 H   0  0  0  0  0  0  0  0  0  0  0  0
    6.2629   -0.4559   -6.5523 H   0  0  0  0  0  0  0  0  0  0  0  0
   -0.3187    4.4337   -1.9875 H   0  0  0  0  0  0  0  0  0  0  0  0
    1.2099    3.2942   -0.4688 H   0  0  0  0  0  0  0  0  0  0  0  0
    3.3726    1.6527   -3.8050 H   0  0  0  0  0  0  0  0  0  0  0  0
  1  2  1  0
  2  3  1  0
  2  5  1  0
  3  4  1  0
  5  6  2  0
  5 10  1  0
  6  7  1  0
  7  8  2  0
  8  9  1  0
  9 10  2  0
 10 11  1  0
 11 12  1  0
 11 15  2  0
 12 13  1  0
 12 68  1  0
 13 14  1  0
 15 16  1  0
 15 67  1  0
 16 17  1  0
 17 18  1  0
 17 19  1  0
 17 20  1  0
 20 21  1  0
 21 22  1  0
 22 23  1  0
 22 66  2  0
 23 24  1  0
 23 65  1  0
 24 25  1  0
 25 26  1  0
 25 63  1  0
 26 27  1  0
 26 62  2  0
 27 28  1  0
 27 55  1  0
 28 29  1  0
 29 30  1  0
 29 54  2  0
 30 31  1  0
 30 34  1  0
 31 32  1  0
 31 33  1  0
 34 35  1  0
 34 53  1  0
 35 36  1  0
 35 52  2  0
 36 37  1  0
 36 51  1  0
 36 73  1  0
 37 38  1  0
 38 39  1  0
 39 40  1  0
 39 50  1  0
 40 41  1  0
 40 49  2  0
 42 43  1  0
 43 44  1  0
 43 47  1  0
 43 48  1  0
 44 45  1  0
 44 46  1  0
 50 51  1  0
 55 56  1  0
 56 57  1  0
 56 61  1  0
 57 58  1  0
 58 59  1  0
 58 71  1  0
 59 60  1  0
 60 61  1  0
 63 64  1  0
 64 65  1  0
 67 68  2  0
 67 72  1  0
 68 69  1  0
 69 70  2  0
 70 71  1  0
 71 72  2  0
  1 74  1  0
  1 75  1  0
  1 76  1  0
  2 77  1  1
  4 78  1  0
  4 79  1  0
  4 80  1  0
  7 81  1  0
  8 82  1  0
  9 83  1  0
 13 84  1  0
 13 85  1  0
 14 86  1  0
 14 87  1  0
 14 88  1  0
 16 89  1  0
 16 90  1  0
 18 91  1  0
 18 92  1  0
 18 93  1  0
 19 94  1  0
 19 95  1  0
 19 96  1  0
 20 97  1  0
 20 98  1  0
 23 99  1  1
 24100  1  0
 27101  1  6
 28102  1  0
 30103  1  1
 31104  1  0
 32105  1  0
 32106  1  0
 32107  1  0
 33108  1  0
 33109  1  0
 33110  1  0
 37111  1  0
 37112  1  0
 38113  1  0
 38114  1  0
 45115  1  0
 45116  1  0
 45117  1  0
 46118  1  0
 46119  1  0
 46120  1  0
 47121  1  0
 47122  1  0
 47123  1  0
 48124  1  0
 48125  1  0
 48126  1  0
 50127  1  0
 50128  1  0
 51129  1  0
 51130  1  0
 53131  1  0
 53132  1  0
 53133  1  0
 55134  1  0
 55135  1  0
 56136  1  1
 57137  1  0
 57138  1  0
 59139  1  0
 59140  1  0
 60141  1  0
 60142  1  0
 63143  1  0
 63144  1  0
 64145  1  0
 64146  1  0
 65147  1  0
 65148  1  0
 69149  1  0
 70150  1  0
 72151  1  0
 41 42  3  0
M  END
$$$$
