mol_ETKDG2_13
     RDKit          3D

151157  0  0  0  0  0  0  0  0999 V2000
    3.3760    7.5045   -8.0041 C   0  0  0  0  0  0  0  0  0  0  0  0
    3.0787    6.0459   -7.6432 C   0  0  2  0  0  0  0  0  0  0  0  0
    4.2434    5.2429   -7.8897 O   0  0  0  0  0  0  0  0  0  0  0  0
    5.1598    5.2519   -6.8048 C   0  0  0  0  0  0  0  0  0  0  0  0
    1.9064    5.4834   -8.4463 C   0  0  0  0  0  0  0  0  0  0  0  0
    1.7092    6.0007   -9.6956 N   0  0  0  0  0  0  0  0  0  0  0  0
    0.6911    5.5136  -10.4352 C   0  0  0  0  0  0  0  0  0  0  0  0
   -0.1713    4.5288   -9.9963 C   0  0  0  0  0  0  0  0  0  0  0  0
    0.0260    4.0071   -8.7233 C   0  0  0  0  0  0  0  0  0  0  0  0
    1.0774    4.4725   -7.9250 C   0  0  0  0  0  0  0  0  0  0  0  0
    1.2650    3.8968   -6.5884 C   0  0  0  0  0  0  0  0  0  0  0  0
    0.5661    4.3188   -5.4749 N   0  0  0  0  0  0  0  0  0  0  0  0
   -0.5365    5.2726   -5.4708 C   0  0  0  0  0  0  0  0  0  0  0  0
   -0.0776    6.7102   -5.3014 C   0  0  0  0  0  0  0  0  0  0  0  0
    2.1533    2.9025   -6.1755 C   0  0  0  0  0  0  0  0  0  0  0  0
    3.0853    2.1261   -7.0768 C   0  0  0  0  0  0  0  0  0  0  0  0
    2.6223    0.7055   -7.5183 C   0  0  0  0  0  0  0  0  0  0  0  0
    3.5324    0.2642   -8.6897 C   0  0  0  0  0  0  0  0  0  0  0  0
    1.1708    0.6849   -8.0262 C   0  0  0  0  0  0  0  0  0  0  0  0
    2.7585   -0.3252   -6.3778 C   0  0  0  0  0  0  0  0  0  0  0  0
    4.1327   -0.4032   -5.9717 O   0  0  0  0  0  0  0  0  0  0  0  0
    4.3802   -1.2340   -4.9236 C   0  0  0  0  0  0  0  0  0  0  0  0
    5.8528   -1.1347   -4.5209 C   0  0  1  0  0  0  0  0  0  0  0  0
    6.1308   -2.0954   -3.4425 N   0  0  0  0  0  0  0  0  0  0  0  0
    7.4376   -1.9222   -2.9401 N   0  0  0  0  0  0  0  0  0  0  0  0
    7.7509   -1.8442   -1.5779 C   0  0  0  0  0  0  0  0  0  0  0  0
    6.6202   -1.4355   -0.5970 C   0  0  1  0  0  0  0  0  0  0  0  0
    6.9091   -2.0430    0.6978 N   0  0  0  0  0  0  0  0  0  0  0  0
    6.7438   -3.3994    0.8847 C   0  0  0  0  0  0  0  0  0  0  0  0
    7.2535   -3.9091    2.2518 C   0  0  2  0  0  0  0  0  0  0  0  0
    7.8720   -5.3277    2.1559 C   0  0  0  0  0  0  0  0  0  0  0  0
    8.3288   -5.8235    3.5315 C   0  0  0  0  0  0  0  0  0  0  0  0
    9.0767   -5.3339    1.2029 C   0  0  0  0  0  0  0  0  0  0  0  0
    6.1236   -3.8004    3.2102 N   0  0  0  0  0  0  0  0  0  0  0  0
    6.0094   -2.5804    3.8958 C   0  0  0  0  0  0  0  0  0  0  0  0
    4.8060   -2.3693    4.8460 C   0  0  0  0  0  0  0  0  0  0  0  0
    5.0007   -3.2129    6.1177 C   0  0  0  0  0  0  0  0  0  0  0  0
    3.8880   -2.9317    7.1228 C   0  0  0  0  0  0  0  0  0  0  0  0
    3.8253   -1.5037    7.3927 N   0  0  0  0  0  0  0  0  0  0  0  0
    4.3822   -1.0202    8.5736 C   0  0  0  0  0  0  0  0  0  0  0  0
    4.5401    0.4098    8.7219 C   0  0  0  0  0  0  0  0  0  0  0  0
    4.6958    1.5981    8.8217 C   0  0  0  0  0  0  0  0  0  0  0  0
    4.9057    3.0615    8.9127 C   0  0  0  0  0  0  0  0  0  0  0  0
    6.2685    3.4633    8.4659 N   0  0  0  0  0  0  0  0  0  0  0  0
    6.5532    3.1777    7.0569 C   0  0  0  0  0  0  0  0  0  0  0  0
    7.3528    2.9319    9.2993 C   0  0  0  0  0  0  0  0  0  0  0  0
    4.6552    3.5020   10.3727 C   0  0  0  0  0  0  0  0  0  0  0  0
    3.8274    3.7592    8.0503 C   0  0  0  0  0  0  0  0  0  0  0  0
    4.7678   -1.7373    9.4899 O   0  0  0  0  0  0  0  0  0  0  0  0
    3.5511   -0.6787    6.2206 C   0  0  0  0  0  0  0  0  0  0  0  0
    4.6568   -0.8760    5.1911 C   0  0  0  0  0  0  0  0  0  0  0  0
    6.8931   -1.7182    3.8075 O   0  0  0  0  0  0  0  0  0  0  0  0
    4.9440   -4.6247    2.9436 C   0  0  0  0  0  0  0  0  0  0  0  0
    6.1628   -4.1174    0.0726 O   0  0  0  0  0  0  0  0  0  0  0  0
    6.6040    0.1011   -0.5056 C   0  0  0  0  0  0  0  0  0  0  0  0
    5.2239    0.7382   -0.2911 C   0  0  1  0  0  0  0  0  0  0  0  0
    4.4739    0.9701   -1.6274 C   0  0  0  0  0  0  0  0  0  0  0  0
    3.1875    1.6281   -1.3427 N   0  0  0  0  0  0  0  0  0  0  0  0
    2.3683    0.8330   -0.3962 C   0  0  0  0  0  0  0  0  0  0  0  0
    3.1792    0.5644    0.8836 C   0  0  0  0  0  0  0  0  0  0  0  0
    4.4414   -0.0650    0.6085 O   0  0  0  0  0  0  0  0  0  0  0  0
    8.9104   -1.9795   -1.1687 O   0  0  0  0  0  0  0  0  0  0  0  0
    8.4813   -2.2342   -3.9237 C   0  0  0  0  0  0  0  0  0  0  0  0
    8.2712   -1.4115   -5.1981 C   0  0  0  0  0  0  0  0  0  0  0  0
    6.8119   -1.4463   -5.6758 C   0  0  0  0  0  0  0  0  0  0  0  0
    3.5274   -1.8741   -4.3231 O   0  0  0  0  0  0  0  0  0  0  0  0
    2.0787    2.8440   -4.7393 C   0  0  0  0  0  0  0  0  0  0  0  0
    1.0735    3.7221   -4.3378 C   0  0  0  0  0  0  0  0  0  0  0  0
    0.7427    3.8967   -2.9880 C   0  0  0  0  0  0  0  0  0  0  0  0
    1.4599    3.1690   -2.0316 C   0  0  0  0  0  0  0  0  0  0  0  0
    2.4861    2.2758   -2.3658 C   0  0  0  0  0  0  0  0  0  0  0  0
    2.7905    2.1373   -3.7331 C   0  0  0  0  0  0  0  0  0  0  0  0
    3.6224   -2.7454    4.2616 F   0  0  0  0  0  0  0  0  0  0  0  0
    4.1664    7.9120   -7.3664 H   0  0  0  0  0  0  0  0  0  0  0  0
    3.7350    7.5967   -9.0355 H   0  0  0  0  0  0  0  0  0  0  0  0
    2.4886    8.1335   -7.8860 H   0  0  0  0  0  0  0  0  0  0  0  0
    2.8227    6.0223   -6.5773 H   0  0  0  0  0  0  0  0  0  0  0  0
    4.6846    4.8849   -5.8905 H   0  0  0  0  0  0  0  0  0  0  0  0
    5.9881    4.5816   -7.0535 H   0  0  0  0  0  0  0  0  0  0  0  0
    5.5666    6.2536   -6.6418 H   0  0  0  0  0  0  0  0  0  0  0  0
    0.5851    5.9530  -11.4221 H   0  0  0  0  0  0  0  0  0  0  0  0
   -0.9747    4.1717  -10.6307 H   0  0  0  0  0  0  0  0  0  0  0  0
   -0.6380    3.2273   -8.3562 H   0  0  0  0  0  0  0  0  0  0  0  0
   -1.1027    5.1536   -6.3992 H   0  0  0  0  0  0  0  0  0  0  0  0
   -1.2184    4.9920   -4.6607 H   0  0  0  0  0  0  0  0  0  0  0  0
    0.5237    6.8354   -4.3965 H   0  0  0  0  0  0  0  0  0  0  0  0
    0.5263    7.0375   -6.1512 H   0  0  0  0  0  0  0  0  0  0  0  0
   -0.9437    7.3747   -5.2323 H   0  0  0  0  0  0  0  0  0  0  0  0
    3.2582    2.7238   -7.9805 H   0  0  0  0  0  0  0  0  0  0  0  0
    4.0672    2.0673   -6.5908 H   0  0  0  0  0  0  0  0  0  0  0  0
    4.5911    0.2952   -8.4140 H   0  0  0  0  0  0  0  0  0  0  0  0
    3.2994   -0.7583   -9.0078 H   0  0  0  0  0  0  0  0  0  0  0  0
    3.4014    0.9168   -9.5603 H   0  0  0  0  0  0  0  0  0  0  0  0
    0.4605    0.9917   -7.2526 H   0  0  0  0  0  0  0  0  0  0  0  0
    1.0488    1.3394   -8.8924 H   0  0  0  0  0  0  0  0  0  0  0  0
    0.8806   -0.3237   -8.3433 H   0  0  0  0  0  0  0  0  0  0  0  0
    2.1283   -0.0483   -5.5262 H   0  0  0  0  0  0  0  0  0  0  0  0
    2.4441   -1.3174   -6.7267 H   0  0  0  0  0  0  0  0  0  0  0  0
    6.0090   -0.1141   -4.1501 H   0  0  0  0  0  0  0  0  0  0  0  0
    5.3809   -2.1230   -2.7508 H   0  0  0  0  0  0  0  0  0  0  0  0
    5.6574   -1.8309   -0.9217 H   0  0  0  0  0  0  0  0  0  0  0  0
    7.5220   -1.5514    1.3430 H   0  0  0  0  0  0  0  0  0  0  0  0
    8.0611   -3.2420    2.5791 H   0  0  0  0  0  0  0  0  0  0  0  0
    7.1431   -6.0404    1.7566 H   0  0  0  0  0  0  0  0  0  0  0  0
    7.4926   -5.8902    4.2333 H   0  0  0  0  0  0  0  0  0  0  0  0
    8.7730   -6.8217    3.4555 H   0  0  0  0  0  0  0  0  0  0  0  0
    9.0814   -5.1548    3.9631 H   0  0  0  0  0  0  0  0  0  0  0  0
    9.8381   -4.6124    1.5199 H   0  0  0  0  0  0  0  0  0  0  0  0
    9.5426   -6.3240    1.1717 H   0  0  0  0  0  0  0  0  0  0  0  0
    8.7787   -5.0830    0.1799 H   0  0  0  0  0  0  0  0  0  0  0  0
    5.0036   -4.2829    5.8882 H   0  0  0  0  0  0  0  0  0  0  0  0
    5.9740   -2.9818    6.5684 H   0  0  0  0  0  0  0  0  0  0  0  0
    2.9162   -3.2429    6.7229 H   0  0  0  0  0  0  0  0  0  0  0  0
    4.0617   -3.5010    8.0416 H   0  0  0  0  0  0  0  0  0  0  0  0
    6.4863    2.1118    6.8169 H   0  0  0  0  0  0  0  0  0  0  0  0
    5.8859    3.7316    6.3913 H   0  0  0  0  0  0  0  0  0  0  0  0
    7.5626    3.5141    6.7920 H   0  0  0  0  0  0  0  0  0  0  0  0
    7.2904    3.3033   10.3272 H   0  0  0  0  0  0  0  0  0  0  0  0
    7.3751    1.8368    9.3185 H   0  0  0  0  0  0  0  0  0  0  0  0
    8.3273    3.2771    8.9306 H   0  0  0  0  0  0  0  0  0  0  0  0
    5.2734    2.9515   11.0904 H   0  0  0  0  0  0  0  0  0  0  0  0
    4.8484    4.5730   10.5042 H   0  0  0  0  0  0  0  0  0  0  0  0
    3.6147    3.3187   10.6691 H   0  0  0  0  0  0  0  0  0  0  0  0
    2.8218    3.5735    8.4491 H   0  0  0  0  0  0  0  0  0  0  0  0
    3.9779    4.8449    8.0277 H   0  0  0  0  0  0  0  0  0  0  0  0
    3.8153    3.3906    7.0182 H   0  0  0  0  0  0  0  0  0  0  0  0
    2.5824   -0.9905    5.8131 H   0  0  0  0  0  0  0  0  0  0  0  0
    3.4610    0.3783    6.4810 H   0  0  0  0  0  0  0  0  0  0  0  0
    5.5980   -0.4756    5.5887 H   0  0  0  0  0  0  0  0  0  0  0  0
    4.4114   -0.3063    4.2866 H   0  0  0  0  0  0  0  0  0  0  0  0
    4.3882   -4.8162    3.8620 H   0  0  0  0  0  0  0  0  0  0  0  0
    4.2946   -4.0997    2.2367 H   0  0  0  0  0  0  0  0  0  0  0  0
    5.2249   -5.5953    2.5336 H   0  0  0  0  0  0  0  0  0  0  0  0
    7.2435    0.4077    0.3343 H   0  0  0  0  0  0  0  0  0  0  0  0
    7.0608    0.5556   -1.3940 H   0  0  0  0  0  0  0  0  0  0  0  0
    5.3852    1.7164    0.1852 H   0  0  0  0  0  0  0  0  0  0  0  0
    5.0969    1.5991   -2.2732 H   0  0  0  0  0  0  0  0  0  0  0  0
    4.2895    0.0124   -2.1257 H   0  0  0  0  0  0  0  0  0  0  0  0
    1.4379    1.3359   -0.1124 H   0  0  0  0  0  0  0  0  0  0  0  0
    2.1059   -0.1202   -0.8720 H   0  0  0  0  0  0  0  0  0  0  0  0
    3.3643    1.4970    1.4303 H   0  0  0  0  0  0  0  0  0  0  0  0
    2.6176   -0.1020    1.5474 H   0  0  0  0  0  0  0  0  0  0  0  0
    9.4746   -2.0315   -3.5106 H   0  0  0  0  0  0  0  0  0  0  0  0
    8.4236   -3.3083   -4.1378 H   0  0  0  0  0  0  0  0  0  0  0  0
    8.5407   -0.3675   -4.9917 H   0  0  0  0  0  0  0  0  0  0  0  0
    8.9389   -1.7659   -5.9903 H   0  0  0  0  0  0  0  0  0  0  0  0
    6.5880   -2.4355   -6.0981 H   0  0  0  0  0  0  0  0  0  0  0  0
    6.6811   -0.7242   -6.4907 H   0  0  0  0  0  0  0  0  0  0  0  0
   -0.0284    4.5918   -2.6719 H   0  0  0  0  0  0  0  0  0  0  0  0
    1.2263    3.3522   -0.9854 H   0  0  0  0  0  0  0  0  0  0  0  0
    3.5827    1.4740   -4.0533 H   0  0  0  0  0  0  0  0  0  0  0  0
  1  2  1  0
  2  3  1  0
  2  5  1  0
  3  4  1  0
  5  6  2  0
  5 10  1  0
  6  7  1  0
  7  8  2  0
  8  9  1  0
  9 10  2  0
 10 11  1  0
 11 12  1  0
 11 15  2  0
 12 13  1  0
 12 68  1  0
 13 14  1  0
 15 16  1  0
 15 67  1  0
 16 17  1  0
 17 18  1  0
 17 19  1  0
 17 20  1  0
 20 21  1  0
 21 22  1  0
 22 23  1  0
 22 66  2  0
 23 24  1  0
 23 65  1  0
 24 25  1  0
 25 26  1  0
 25 63  1  0
 26 27  1  0
 26 62  2  0
 27 28  1  0
 27 55  1  0
 28 29  1  0
 29 30  1  0
 29 54  2  0
 30 31  1  0
 30 34  1  0
 31 32  1  0
 31 33  1  0
 34 35  1  0
 34 53  1  0
 35 36  1  0
 35 52  2  0
 36 37  1  0
 36 51  1  0
 36 73  1  0
 37 38  1  0
 38 39  1  0
 39 40  1  0
 39 50  1  0
 40 41  1  0
 40 49  2  0
 42 43  1  0
 43 44  1  0
 43 47  1  0
 43 48  1  0
 44 45  1  0
 44 46  1  0
 50 51  1  0
 55 56  1  0
 56 57  1  0
 56 61  1  0
 57 58  1  0
 58 59  1  0
 58 71  1  0
 59 60  1  0
 60 61  1  0
 63 64  1  0
 64 65  1  0
 67 68  2  0
 67 72  1  0
 68 69  1  0
 69 70  2  0
 70 71  1  0
 71 72  2  0
  1 74  1  0
  1 75  1  0
  1 76  1  0
  2 77  1  1
  4 78  1  0
  4 79  1  0
  4 80  1  0
  7 81  1  0
  8 82  1  0
  9 83  1  0
 13 84  1  0
 13 85  1  0
 14 86  1  0
 14 87  1  0
 14 88  1  0
 16 89  1  0
 16 90  1  0
 18 91  1  0
 18 92  1  0
 18 93  1  0
 19 94  1  0
 19 95  1  0
 19 96  1  0
 20 97  1  0
 20 98  1  0
 23 99  1  1
 24100  1  0
 27101  1  6
 28102  1  0
 30103  1  1
 31104  1  0
 32105  1  0
 32106  1  0
 32107  1  0
 33108  1  0
 33109  1  0
 33110  1  0
 37111  1  0
 37112  1  0
 38113  1  0
 38114  1  0
 45115  1  0
 45116  1  0
 45117  1  0
 46118  1  0
 46119  1  0
 46120  1  0
 47121  1  0
 47122  1  0
 47123  1  0
 48124  1  0
 48125  1  0
 48126  1  0
 50127  1  0
 50128  1  0
 51129  1  0
 51130  1  0
 53131  1  0
 53132  1  0
 53133  1  0
 55134  1  0
 55135  1  0
 56136  1  1
 57137  1  0
 57138  1  0
 59139  1  0
 59140  1  0
 60141  1  0
 60142  1  0
 63143  1  0
 63144  1  0
 64145  1  0
 64146  1  0
 65147  1  0
 65148  1  0
 69149  1  0
 70150  1  0
 72151  1  0
 41 42  3  0
M  END
$$$$
