mol_ETKDG3_19
     RDKit          3D

151157  0  0  0  0  0  0  0  0999 V2000
    1.9224    7.0515   -8.4613 C   0  0  0  0  0  0  0  0  0  0  0  0
    1.8702    5.5889   -8.0091 C   0  0  2  0  0  0  0  0  0  0  0  0
    3.1378    4.9632   -8.2553 O   0  0  0  0  0  0  0  0  0  0  0  0
    4.0789    5.1911   -7.2152 C   0  0  0  0  0  0  0  0  0  0  0  0
    0.7764    4.8071   -8.7337 C   0  0  0  0  0  0  0  0  0  0  0  0
    0.4733    5.2022  -10.0051 N   0  0  0  0  0  0  0  0  0  0  0  0
   -0.4869    4.5293  -10.6726 C   0  0  0  0  0  0  0  0  0  0  0  0
   -1.1976    3.4757  -10.1345 C   0  0  0  0  0  0  0  0  0  0  0  0
   -0.8923    3.0763   -8.8398 C   0  0  0  0  0  0  0  0  0  0  0  0
    0.1152    3.7284   -8.1184 C   0  0  0  0  0  0  0  0  0  0  0  0
    0.4365    3.2576   -6.7652 C   0  0  0  0  0  0  0  0  0  0  0  0
   -0.2731    3.6287   -5.6409 N   0  0  0  0  0  0  0  0  0  0  0  0
   -1.4791    4.4492   -5.6244 C   0  0  0  0  0  0  0  0  0  0  0  0
   -1.1827    5.9316   -5.4706 C   0  0  0  0  0  0  0  0  0  0  0  0
    1.4777    2.4250   -6.3491 C   0  0  0  0  0  0  0  0  0  0  0  0
    2.4973    1.7701   -7.2545 C   0  0  0  0  0  0  0  0  0  0  0  0
    2.2332    0.2930   -7.6748 C   0  0  0  0  0  0  0  0  0  0  0  0
    3.1999   -0.0348   -8.8389 C   0  0  0  0  0  0  0  0  0  0  0  0
    0.8001    0.0651   -8.1822 C   0  0  0  0  0  0  0  0  0  0  0  0
    2.5023   -0.6898   -6.5165 C   0  0  0  0  0  0  0  0  0  0  0  0
    3.8749   -0.5803   -6.1134 O   0  0  0  0  0  0  0  0  0  0  0  0
    4.2372   -1.3886   -5.0811 C   0  0  0  0  0  0  0  0  0  0  0  0
    5.6898   -1.1088   -4.6948 C   0  0  1  0  0  0  0  0  0  0  0  0
    6.1016   -2.0323   -3.6292 N   0  0  0  0  0  0  0  0  0  0  0  0
    7.3749   -1.6902   -3.1348 N   0  0  0  0  0  0  0  0  0  0  0  0
    7.6743   -1.5022   -1.7833 C   0  0  0  0  0  0  0  0  0  0  0  0
    6.5004   -1.2189   -0.8102 C   0  0  1  0  0  0  0  0  0  0  0  0
    6.8147   -1.8523    0.4675 N   0  0  0  0  0  0  0  0  0  0  0  0
    6.7356   -3.2241    0.5932 C   0  0  0  0  0  0  0  0  0  0  0  0
    7.2140   -3.7626    1.9611 C   0  0  2  0  0  0  0  0  0  0  0  0
    7.8270   -5.1821    1.8447 C   0  0  0  0  0  0  0  0  0  0  0  0
    8.1517   -5.7666    3.2237 C   0  0  0  0  0  0  0  0  0  0  0  0
    9.1158   -5.1472    1.0077 C   0  0  0  0  0  0  0  0  0  0  0  0
    6.0604   -3.6719    2.8925 N   0  0  0  0  0  0  0  0  0  0  0  0
    5.9412   -2.4749    3.6153 C   0  0  0  0  0  0  0  0  0  0  0  0
    4.7280   -2.2890    4.5569 C   0  0  0  0  0  0  0  0  0  0  0  0
    4.8936   -3.1919    5.7919 C   0  0  0  0  0  0  0  0  0  0  0  0
    3.7732   -2.9392    6.7950 C   0  0  0  0  0  0  0  0  0  0  0  0
    3.7325   -1.5256    7.1338 N   0  0  0  0  0  0  0  0  0  0  0  0
    4.2073   -1.1137    8.3736 C   0  0  0  0  0  0  0  0  0  0  0  0
    4.3943    0.2995    8.6092 C   0  0  0  0  0  0  0  0  0  0  0  0
    4.5989    1.4705    8.7946 C   0  0  0  0  0  0  0  0  0  0  0  0
    4.8939    2.9094    8.9974 C   0  0  0  0  0  0  0  0  0  0  0  0
    5.9430    3.4012    8.0582 N   0  0  0  0  0  0  0  0  0  0  0  0
    5.5788    3.3095    6.6428 C   0  0  0  0  0  0  0  0  0  0  0  0
    7.2643    2.8006    8.2668 C   0  0  0  0  0  0  0  0  0  0  0  0
    5.3263    3.1186   10.4670 C   0  0  0  0  0  0  0  0  0  0  0  0
    3.5866    3.7130    8.8073 C   0  0  0  0  0  0  0  0  0  0  0  0
    4.5041   -1.8868    9.2773 O   0  0  0  0  0  0  0  0  0  0  0  0
    3.4917   -0.6365    6.0019 C   0  0  0  0  0  0  0  0  0  0  0  0
    4.5973   -0.8118    4.9686 C   0  0  0  0  0  0  0  0  0  0  0  0
    6.8260   -1.6111    3.5610 O   0  0  0  0  0  0  0  0  0  0  0  0
    4.8823   -4.4782    2.5686 C   0  0  0  0  0  0  0  0  0  0  0  0
    6.2415   -3.9413   -0.2753 O   0  0  0  0  0  0  0  0  0  0  0  0
    6.3542    0.3089   -0.6738 C   0  0  0  0  0  0  0  0  0  0  0  0
    4.9179    0.8116   -0.4625 C   0  0  1  0  0  0  0  0  0  0  0  0
    4.1305    0.9231   -1.7960 C   0  0  0  0  0  0  0  0  0  0  0  0
    2.7725    1.4220   -1.5106 N   0  0  0  0  0  0  0  0  0  0  0  0
    2.0711    0.5519   -0.5348 C   0  0  0  0  0  0  0  0  0  0  0  0
    2.9165    0.4407    0.7451 C   0  0  0  0  0  0  0  0  0  0  0  0
    4.2413   -0.0428    0.4755 O   0  0  0  0  0  0  0  0  0  0  0  0
    8.8419   -1.4547   -1.3740 O   0  0  0  0  0  0  0  0  0  0  0  0
    8.4446   -1.8719   -4.1212 C   0  0  0  0  0  0  0  0  0  0  0  0
    8.1192   -1.0874   -5.3993 C   0  0  0  0  0  0  0  0  0  0  0  0
    6.6701   -1.2997   -5.8606 C   0  0  0  0  0  0  0  0  0  0  0  0
    3.4809   -2.1413   -4.4829 O   0  0  0  0  0  0  0  0  0  0  0  0
    1.4470    2.3953   -4.9105 C   0  0  0  0  0  0  0  0  0  0  0  0
    0.3378    3.1353   -4.5044 C   0  0  0  0  0  0  0  0  0  0  0  0
    0.0158    3.2999   -3.1508 C   0  0  0  0  0  0  0  0  0  0  0  0
    0.8470    2.7040   -2.1974 C   0  0  0  0  0  0  0  0  0  0  0  0
    1.9775    1.9486   -2.5357 C   0  0  0  0  0  0  0  0  0  0  0  0
    2.2734    1.8207   -3.9051 C   0  0  0  0  0  0  0  0  0  0  0  0
    3.5474   -2.6240    3.9407 F   0  0  0  0  0  0  0  0  0  0  0  0
    2.5927    7.6324   -7.8186 H   0  0  0  0  0  0  0  0  0  0  0  0
    2.3147    7.1412   -9.4804 H   0  0  0  0  0  0  0  0  0  0  0  0
    0.9341    7.5204   -8.4223 H   0  0  0  0  0  0  0  0  0  0  0  0
    1.6525    5.5898   -6.9343 H   0  0  0  0  0  0  0  0  0  0  0  0
    3.7044    4.8044   -6.2608 H   0  0  0  0  0  0  0  0  0  0  0  0
    5.0003    4.6576   -7.4649 H   0  0  0  0  0  0  0  0  0  0  0  0
    4.3119    6.2562   -7.1236 H   0  0  0  0  0  0  0  0  0  0  0  0
   -0.6748    4.8755  -11.6851 H   0  0  0  0  0  0  0  0  0  0  0  0
   -1.9617    2.9694  -10.7124 H   0  0  0  0  0  0  0  0  0  0  0  0
   -1.4309    2.2417   -8.3971 H   0  0  0  0  0  0  0  0  0  0  0  0
   -2.0427    4.2634   -6.5433 H   0  0  0  0  0  0  0  0  0  0  0  0
   -2.1106    4.0981   -4.8009 H   0  0  0  0  0  0  0  0  0  0  0  0
   -0.5781    6.1303   -4.5798 H   0  0  0  0  0  0  0  0  0  0  0  0
   -0.6403    6.3202   -6.3366 H   0  0  0  0  0  0  0  0  0  0  0  0
   -2.1169    6.4949   -5.3822 H   0  0  0  0  0  0  0  0  0  0  0  0
    2.5734    2.3736   -8.1683 H   0  0  0  0  0  0  0  0  0  0  0  0
    3.4850    1.8560   -6.7817 H   0  0  0  0  0  0  0  0  0  0  0  0
    4.2451    0.1361   -8.5566 H   0  0  0  0  0  0  0  0  0  0  0  0
    3.1033   -1.0812   -9.1492 H   0  0  0  0  0  0  0  0  0  0  0  0
    2.9889    0.5900   -9.7141 H   0  0  0  0  0  0  0  0  0  0  0  0
    0.0549    0.2669   -7.4066 H   0  0  0  0  0  0  0  0  0  0  0  0
    0.5848    0.6966   -9.0486 H   0  0  0  0  0  0  0  0  0  0  0  0
    0.6587   -0.9745   -8.5011 H   0  0  0  0  0  0  0  0  0  0  0  0
    1.8435   -0.4815   -5.6669 H   0  0  0  0  0  0  0  0  0  0  0  0
    2.3183   -1.7188   -6.8472 H   0  0  0  0  0  0  0  0  0  0  0  0
    5.7229   -0.0773   -4.3205 H   0  0  0  0  0  0  0  0  0  0  0  0
    5.3708   -2.1945   -2.9348 H   0  0  0  0  0  0  0  0  0  0  0  0
    5.5723   -1.6700   -1.1609 H   0  0  0  0  0  0  0  0  0  0  0  0
    7.3800   -1.3455    1.1451 H   0  0  0  0  0  0  0  0  0  0  0  0
    8.0158   -3.1040    2.3186 H   0  0  0  0  0  0  0  0  0  0  0  0
    7.1315   -5.8629    1.3387 H   0  0  0  0  0  0  0  0  0  0  0  0
    7.2450   -5.9156    3.8180 H   0  0  0  0  0  0  0  0  0  0  0  0
    8.6426   -6.7411    3.1287 H   0  0  0  0  0  0  0  0  0  0  0  0
    8.8220   -5.1052    3.7856 H   0  0  0  0  0  0  0  0  0  0  0  0
    9.5523   -6.1500    0.9264 H   0  0  0  0  0  0  0  0  0  0  0  0
    8.9233   -4.7899   -0.0096 H   0  0  0  0  0  0  0  0  0  0  0  0
    9.8659   -4.4895    1.4624 H   0  0  0  0  0  0  0  0  0  0  0  0
    4.8831   -4.2503    5.5156 H   0  0  0  0  0  0  0  0  0  0  0  0
    5.8652   -2.9953    6.2655 H   0  0  0  0  0  0  0  0  0  0  0  0
    2.8010   -3.2130    6.3694 H   0  0  0  0  0  0  0  0  0  0  0  0
    3.9252   -3.5552    7.6864 H   0  0  0  0  0  0  0  0  0  0  0  0
    4.7049    3.9248    6.4119 H   0  0  0  0  0  0  0  0  0  0  0  0
    6.3850    3.7019    6.0118 H   0  0  0  0  0  0  0  0  0  0  0  0
    5.3816    2.2819    6.3234 H   0  0  0  0  0  0  0  0  0  0  0  0
    7.6637    3.0434    9.2548 H   0  0  0  0  0  0  0  0  0  0  0  0
    7.2620    1.7141    8.1397 H   0  0  0  0  0  0  0  0  0  0  0  0
    7.9898    3.2160    7.5570 H   0  0  0  0  0  0  0  0  0  0  0  0
    4.5087    2.8765   11.1580 H   0  0  0  0  0  0  0  0  0  0  0  0
    6.1644    2.4733   10.7525 H   0  0  0  0  0  0  0  0  0  0  0  0
    5.6158    4.1595   10.6528 H   0  0  0  0  0  0  0  0  0  0  0  0
    2.8523    3.4679    9.5869 H   0  0  0  0  0  0  0  0  0  0  0  0
    3.7744    4.7928    8.8635 H   0  0  0  0  0  0  0  0  0  0  0  0
    3.0960    3.4989    7.8511 H   0  0  0  0  0  0  0  0  0  0  0  0
    2.5178   -0.9037    5.5713 H   0  0  0  0  0  0  0  0  0  0  0  0
    3.4281    0.4090    6.3130 H   0  0  0  0  0  0  0  0  0  0  0  0
    5.5429   -0.4430    5.3881 H   0  0  0  0  0  0  0  0  0  0  0  0
    4.3675   -0.1998    4.0876 H   0  0  0  0  0  0  0  0  0  0  0  0
    4.2988   -4.6949    3.4651 H   0  0  0  0  0  0  0  0  0  0  0  0
    4.2562   -3.9264    1.8611 H   0  0  0  0  0  0  0  0  0  0  0  0
    5.1716   -5.4370    2.1349 H   0  0  0  0  0  0  0  0  0  0  0  0
    6.9550    0.6424    0.1843 H   0  0  0  0  0  0  0  0  0  0  0  0
    6.7744    0.8232   -1.5488 H   0  0  0  0  0  0  0  0  0  0  0  0
    4.9820    1.8156   -0.0186 H   0  0  0  0  0  0  0  0  0  0  0  0
    4.6632    1.6129   -2.4606 H   0  0  0  0  0  0  0  0  0  0  0  0
    4.0606   -0.0580   -2.2774 H   0  0  0  0  0  0  0  0  0  0  0  0
    1.0824    0.9299   -0.2589 H   0  0  0  0  0  0  0  0  0  0  0  0
    1.9407   -0.4433   -0.9784 H   0  0  0  0  0  0  0  0  0  0  0  0
    2.9909    1.4124    1.2480 H   0  0  0  0  0  0  0  0  0  0  0  0
    2.4462   -0.2605    1.4416 H   0  0  0  0  0  0  0  0  0  0  0  0
    9.4077   -1.5419   -3.7173 H   0  0  0  0  0  0  0  0  0  0  0  0
    8.5236   -2.9447   -4.3352 H   0  0  0  0  0  0  0  0  0  0  0  0
    8.2652   -0.0169   -5.1996 H   0  0  0  0  0  0  0  0  0  0  0  0
    8.8165   -1.3631   -6.1979 H   0  0  0  0  0  0  0  0  0  0  0  0
    6.5649   -2.3089   -6.2799 H   0  0  0  0  0  0  0  0  0  0  0  0
    6.4431   -0.6004   -6.6736 H   0  0  0  0  0  0  0  0  0  0  0  0
   -0.8372    3.8882   -2.8323 H   0  0  0  0  0  0  0  0  0  0  0  0
    0.6123    2.8820   -1.1501 H   0  0  0  0  0  0  0  0  0  0  0  0
    3.1442    1.2668   -4.2265 H   0  0  0  0  0  0  0  0  0  0  0  0
  1  2  1  0
  2  3  1  0
  2  5  1  0
  3  4  1  0
  5  6  2  0
  5 10  1  0
  6  7  1  0
  7  8  2  0
  8  9  1  0
  9 10  2  0
 10 11  1  0
 11 12  1  0
 11 15  2  0
 12 13  1  0
 12 68  1  0
 13 14  1  0
 15 16  1  0
 15 67  1  0
 16 17  1  0
 17 18  1  0
 17 19  1  0
 17 20  1  0
 20 21  1  0
 21 22  1  0
 22 23  1  0
 22 66  2  0
 23 24  1  0
 23 65  1  0
 24 25  1  0
 25 26  1  0
 25 63  1  0
 26 27  1  0
 26 62  2  0
 27 28  1  0
 27 55  1  0
 28 29  1  0
 29 30  1  0
 29 54  2  0
 30 31  1  0
 30 34  1  0
 31 32  1  0
 31 33  1  0
 34 35  1  0
 34 53  1  0
 35 36  1  0
 35 52  2  0
 36 37  1  0
 36 51  1  0
 36 73  1  0
 37 38  1  0
 38 39  1  0
 39 40  1  0
 39 50  1  0
 40 41  1  0
 40 49  2  0
 42 43  1  0
 43 44  1  0
 43 47  1  0
 43 48  1  0
 44 45  1  0
 44 46  1  0
 50 51  1  0
 55 56  1  0
 56 57  1  0
 56 61  1  0
 57 58  1  0
 58 59  1  0
 58 71  1  0
 59 60  1  0
 60 61  1  0
 63 64  1  0
 64 65  1  0
 67 68  2  0
 67 72  1  0
 68 69  1  0
 69 70  2  0
 70 71  1  0
 71 72  2  0
  1 74  1  0
  1 75  1  0
  1 76  1  0
  2 77  1  1
  4 78  1  0
  4 79  1  0
  4 80  1  0
  7 81  1  0
  8 82  1  0
  9 83  1  0
 13 84  1  0
 13 85  1  0
 14 86  1  0
 14 87  1  0
 14 88  1  0
 16 89  1  0
 16 90  1  0
 18 91  1  0
 18 92  1  0
 18 93  1  0
 19 94  1  0
 19 95  1  0
 19 96  1  0
 20 97  1  0
 20 98  1  0
 23 99  1  1
 24100  1  0
 27101  1  6
 28102  1  0
 30103  1  1
 31104  1  0
 32105  1  0
 32106  1  0
 32107  1  0
 33108  1  0
 33109  1  0
 33110  1  0
 37111  1  0
 37112  1  0
 38113  1  0
 38114  1  0
 45115  1  0
 45116  1  0
 45117  1  0
 46118  1  0
 46119  1  0
 46120  1  0
 47121  1  0
 47122  1  0
 47123  1  0
 48124  1  0
 48125  1  0
 48126  1  0
 50127  1  0
 50128  1  0
 51129  1  0
 51130  1  0
 53131  1  0
 53132  1  0
 53133  1  0
 55134  1  0
 55135  1  0
 56136  1  1
 57137  1  0
 57138  1  0
 59139  1  0
 59140  1  0
 60141  1  0
 60142  1  0
 63143  1  0
 63144  1  0
 64145  1  0
 64146  1  0
 65147  1  0
 65148  1  0
 69149  1  0
 70150  1  0
 72151  1  0
 41 42  3  0
M  END
$$$$
