mol_ETKDG1_10
     RDKit          3D

151157  0  0  0  0  0  0  0  0999 V2000
    4.4917    7.9425   -6.9111 C   0  0  0  0  0  0  0  0  0  0  0  0
    3.9247    6.5362   -6.6970 C   0  0  2  0  0  0  0  0  0  0  0  0
    4.9603    5.5669   -6.9087 O   0  0  0  0  0  0  0  0  0  0  0  0
    5.7546    5.3427   -5.7538 C   0  0  0  0  0  0  0  0  0  0  0  0
    2.7596    6.2321   -7.6357 C   0  0  0  0  0  0  0  0  0  0  0  0
    2.7164    6.9217   -8.8139 N   0  0  0  0  0  0  0  0  0  0  0  0
    1.7080    6.6606   -9.6712 C   0  0  0  0  0  0  0  0  0  0  0  0
    0.7011    5.7508   -9.4163 C   0  0  0  0  0  0  0  0  0  0  0  0
    0.7392    5.0575   -8.2127 C   0  0  0  0  0  0  0  0  0  0  0  0
    1.7835    5.2748   -7.3053 C   0  0  0  0  0  0  0  0  0  0  0  0
    1.8092    4.4854   -6.0676 C   0  0  0  0  0  0  0  0  0  0  0  0
    1.1313    4.8459   -4.9196 N   0  0  0  0  0  0  0  0  0  0  0  0
    0.3174    6.0405   -4.7479 C   0  0  0  0  0  0  0  0  0  0  0  0
   -1.1644    5.7693   -4.9459 C   0  0  0  0  0  0  0  0  0  0  0  0
    2.4803    3.2904   -5.8080 C   0  0  0  0  0  0  0  0  0  0  0  0
    3.3898    2.5678   -6.7772 C   0  0  0  0  0  0  0  0  0  0  0  0
    2.8340    1.3137   -7.5183 C   0  0  0  0  0  0  0  0  0  0  0  0
    3.7154    1.0998   -8.7758 C   0  0  0  0  0  0  0  0  0  0  0  0
    1.3823    1.4926   -7.9918 C   0  0  0  0  0  0  0  0  0  0  0  0
    2.9205    0.0379   -6.6549 C   0  0  0  0  0  0  0  0  0  0  0  0
    4.2774   -0.1557   -6.2197 O   0  0  0  0  0  0  0  0  0  0  0  0
    4.4751   -1.1945   -5.3622 C   0  0  0  0  0  0  0  0  0  0  0  0
    5.9130   -1.1602   -4.8385 C   0  0  1  0  0  0  0  0  0  0  0  0
    6.1055   -2.2155   -3.8290 N   0  0  0  0  0  0  0  0  0  0  0  0
    7.3865   -2.1295   -3.2439 N   0  0  0  0  0  0  0  0  0  0  0  0
    7.6494   -1.8808   -1.8919 C   0  0  0  0  0  0  0  0  0  0  0  0
    6.4545   -1.4799   -0.9818 C   0  0  1  0  0  0  0  0  0  0  0  0
    6.7121   -1.9392    0.3759 N   0  0  0  0  0  0  0  0  0  0  0  0
    6.6680   -3.2915    0.6505 C   0  0  0  0  0  0  0  0  0  0  0  0
    7.1222   -3.6800    2.0766 C   0  0  2  0  0  0  0  0  0  0  0  0
    7.8157   -5.0681    2.0879 C   0  0  0  0  0  0  0  0  0  0  0  0
    8.0464   -5.5826    3.5134 C   0  0  0  0  0  0  0  0  0  0  0  0
    9.1695   -4.9915    1.3647 C   0  0  0  0  0  0  0  0  0  0  0  0
    5.9310   -3.5851    2.9569 N   0  0  0  0  0  0  0  0  0  0  0  0
    5.7209   -2.3450    3.5785 C   0  0  0  0  0  0  0  0  0  0  0  0
    4.4678   -2.1575    4.4668 C   0  0  0  0  0  0  0  0  0  0  0  0
    4.6361   -2.9424    5.7789 C   0  0  0  0  0  0  0  0  0  0  0  0
    3.4739   -2.6637    6.7325 C   0  0  0  0  0  0  0  0  0  0  0  0
    3.3417   -1.2283    6.9332 N   0  0  0  0  0  0  0  0  0  0  0  0
    3.8677   -0.6681    8.0962 C   0  0  0  0  0  0  0  0  0  0  0  0
    4.0430    0.7663    8.1481 C   0  0  0  0  0  0  0  0  0  0  0  0
    4.2628    1.9496    8.1372 C   0  0  0  0  0  0  0  0  0  0  0  0
    4.6237    3.3908    8.0725 C   0  0  0  0  0  0  0  0  0  0  0  0
    5.9473    3.5662    8.7226 N   0  0  0  0  0  0  0  0  0  0  0  0
    6.6203    4.8333    8.4340 C   0  0  0  0  0  0  0  0  0  0  0  0
    5.9381    3.3338   10.1723 C   0  0  0  0  0  0  0  0  0  0  0  0
    3.4963    4.2246    8.7183 C   0  0  0  0  0  0  0  0  0  0  0  0
    4.6760    3.7471    6.5654 C   0  0  0  0  0  0  0  0  0  0  0  0
    4.2267   -1.3286    9.0619 O   0  0  0  0  0  0  0  0  0  0  0  0
    3.0822   -0.4731    5.7138 C   0  0  0  0  0  0  0  0  0  0  0  0
    4.2425   -0.6599    4.7474 C   0  0  0  0  0  0  0  0  0  0  0  0
    6.5585   -1.4397    3.4800 O   0  0  0  0  0  0  0  0  0  0  0  0
    4.8142   -4.4867    2.6655 C   0  0  0  0  0  0  0  0  0  0  0  0
    6.2182   -4.1078   -0.1524 O   0  0  0  0  0  0  0  0  0  0  0  0
    6.2953    0.0472   -1.0669 C   0  0  0  0  0  0  0  0  0  0  0  0
    4.8925    0.6122   -0.8094 C   0  0  1  0  0  0  0  0  0  0  0  0
    3.7934   -0.0339   -1.6839 C   0  0  0  0  0  0  0  0  0  0  0  0
    2.5133    0.6730   -1.4539 N   0  0  0  0  0  0  0  0  0  0  0  0
    2.1525    0.5860   -0.0197 C   0  0  0  0  0  0  0  0  0  0  0  0
    3.2910    1.1609    0.8451 C   0  0  0  0  0  0  0  0  0  0  0  0
    4.5484    0.4964    0.5855 O   0  0  0  0  0  0  0  0  0  0  0  0
    8.8006   -1.8861   -1.4409 O   0  0  0  0  0  0  0  0  0  0  0  0
    8.4705   -2.4025   -4.1914 C   0  0  0  0  0  0  0  0  0  0  0  0
    8.3711   -1.4423   -5.3817 C   0  0  0  0  0  0  0  0  0  0  0  0
    6.9466   -1.3799   -5.9521 C   0  0  0  0  0  0  0  0  0  0  0  0
    3.6044   -1.9709   -4.9875 O   0  0  0  0  0  0  0  0  0  0  0  0
    2.2101    2.9502   -4.4391 C   0  0  0  0  0  0  0  0  0  0  0  0
    1.3672    3.9250   -3.9181 C   0  0  0  0  0  0  0  0  0  0  0  0
    0.9060    3.8652   -2.5976 C   0  0  0  0  0  0  0  0  0  0  0  0
    1.3093    2.7841   -1.7956 C   0  0  0  0  0  0  0  0  0  0  0  0
    2.1686    1.7736   -2.2427 C   0  0  0  0  0  0  0  0  0  0  0  0
    2.6082    1.8945   -3.5783 C   0  0  0  0  0  0  0  0  0  0  0  0
    3.3297   -2.6087    3.8435 F   0  0  0  0  0  0  0  0  0  0  0  0
    5.2542    8.1754   -6.1605 H   0  0  0  0  0  0  0  0  0  0  0  0
    4.9831    8.0311   -7.8869 H   0  0  0  0  0  0  0  0  0  0  0  0
    3.7086    8.7065   -6.8413 H   0  0  0  0  0  0  0  0  0  0  0  0
    3.5588    6.4837   -5.6631 H   0  0  0  0  0  0  0  0  0  0  0  0
    5.1349    5.0101   -4.9151 H   0  0  0  0  0  0  0  0  0  0  0  0
    6.4751    4.5527   -5.9829 H   0  0  0  0  0  0  0  0  0  0  0  0
    6.3097    6.2444   -5.4771 H   0  0  0  0  0  0  0  0  0  0  0  0
    1.7327    7.2219  -10.6002 H   0  0  0  0  0  0  0  0  0  0  0  0
   -0.0894    5.5768  -10.1382 H   0  0  0  0  0  0  0  0  0  0  0  0
   -0.0362    4.3281   -7.9901 H   0  0  0  0  0  0  0  0  0  0  0  0
    0.5081    6.4315   -3.7412 H   0  0  0  0  0  0  0  0  0  0  0  0
    0.6649    6.8094   -5.4459 H   0  0  0  0  0  0  0  0  0  0  0  0
   -1.5211    4.9853   -4.2724 H   0  0  0  0  0  0  0  0  0  0  0  0
   -1.7439    6.6770   -4.7498 H   0  0  0  0  0  0  0  0  0  0  0  0
   -1.3726    5.4480   -5.9704 H   0  0  0  0  0  0  0  0  0  0  0  0
    3.7011    3.2955   -7.5389 H   0  0  0  0  0  0  0  0  0  0  0  0
    4.3198    2.3177   -6.2510 H   0  0  0  0  0  0  0  0  0  0  0  0
    4.7749    1.0003   -8.5143 H   0  0  0  0  0  0  0  0  0  0  0  0
    3.4184    0.1960   -9.3204 H   0  0  0  0  0  0  0  0  0  0  0  0
    3.6258    1.9451   -9.4695 H   0  0  0  0  0  0  0  0  0  0  0  0
    0.6979    1.6580   -7.1532 H   0  0  0  0  0  0  0  0  0  0  0  0
    1.2953    2.3335   -8.6838 H   0  0  0  0  0  0  0  0  0  0  0  0
    1.0298    0.6023   -8.5236 H   0  0  0  0  0  0  0  0  0  0  0  0
    2.2550    0.1123   -5.7887 H   0  0  0  0  0  0  0  0  0  0  0  0
    2.6168   -0.8394   -7.2398 H   0  0  0  0  0  0  0  0  0  0  0  0
    6.0536   -0.1787   -4.3660 H   0  0  0  0  0  0  0  0  0  0  0  0
    5.3200   -2.3158   -3.1876 H   0  0  0  0  0  0  0  0  0  0  0  0
    5.5600   -2.0027   -1.3125 H   0  0  0  0  0  0  0  0  0  0  0  0
    7.1787   -1.3284    1.0385 H   0  0  0  0  0  0  0  0  0  0  0  0
    7.8714   -2.9480    2.4026 H   0  0  0  0  0  0  0  0  0  0  0  0
    7.2038   -5.8051    1.5543 H   0  0  0  0  0  0  0  0  0  0  0  0
    7.0998   -5.7783    4.0274 H   0  0  0  0  0  0  0  0  0  0  0  0
    8.6068   -6.5247    3.5005 H   0  0  0  0  0  0  0  0  0  0  0  0
    8.6146   -4.8612    4.1095 H   0  0  0  0  0  0  0  0  0  0  0  0
    9.6138   -5.9878    1.2768 H   0  0  0  0  0  0  0  0  0  0  0  0
    9.0644   -4.5864    0.3539 H   0  0  0  0  0  0  0  0  0  0  0  0
    9.8747   -4.3576    1.9137 H   0  0  0  0  0  0  0  0  0  0  0  0
    4.6839   -4.0205    5.5938 H   0  0  0  0  0  0  0  0  0  0  0  0
    5.5823   -2.6607    6.2574 H   0  0  0  0  0  0  0  0  0  0  0  0
    2.5316   -3.0358    6.3134 H   0  0  0  0  0  0  0  0  0  0  0  0
    3.6396   -3.1826    7.6821 H   0  0  0  0  0  0  0  0  0  0  0  0
    7.5868    4.8826    8.9533 H   0  0  0  0  0  0  0  0  0  0  0  0
    6.8602    4.9275    7.3708 H   0  0  0  0  0  0  0  0  0  0  0  0
    6.0300    5.7018    8.7447 H   0  0  0  0  0  0  0  0  0  0  0  0
    6.9663    3.2820   10.5496 H   0  0  0  0  0  0  0  0  0  0  0  0
    5.4203    4.1295   10.7190 H   0  0  0  0  0  0  0  0  0  0  0  0
    5.4769    2.3749   10.4343 H   0  0  0  0  0  0  0  0  0  0  0  0
    3.3073    3.9342    9.7580 H   0  0  0  0  0  0  0  0  0  0  0  0
    3.7279    5.2961    8.6983 H   0  0  0  0  0  0  0  0  0  0  0  0
    2.5489    4.0867    8.1804 H   0  0  0  0  0  0  0  0  0  0  0  0
    5.4833    3.2044    6.0547 H   0  0  0  0  0  0  0  0  0  0  0  0
    3.7406    3.4726    6.0598 H   0  0  0  0  0  0  0  0  0  0  0  0
    4.8246    4.8211    6.3961 H   0  0  0  0  0  0  0  0  0  0  0  0
    2.1511   -0.8548    5.2775 H   0  0  0  0  0  0  0  0  0  0  0  0
    2.9226    0.5885    5.9249 H   0  0  0  0  0  0  0  0  0  0  0  0
    5.1457   -0.2066    5.1743 H   0  0  0  0  0  0  0  0  0  0  0  0
    4.0216   -0.1339    3.8129 H   0  0  0  0  0  0  0  0  0  0  0  0
    4.2107   -4.6590    3.5571 H   0  0  0  0  0  0  0  0  0  0  0  0
    4.1862   -4.0371    1.8906 H   0  0  0  0  0  0  0  0  0  0  0  0
    5.1774   -5.4599    2.3279 H   0  0  0  0  0  0  0  0  0  0  0  0
    6.9977    0.5195   -0.3653 H   0  0  0  0  0  0  0  0  0  0  0  0
    6.5942    0.3880   -2.0667 H   0  0  0  0  0  0  0  0  0  0  0  0
    4.9472    1.6868   -1.0361 H   0  0  0  0  0  0  0  0  0  0  0  0
    4.1003   -0.0680   -2.7279 H   0  0  0  0  0  0  0  0  0  0  0  0
    3.6362   -1.0744   -1.3785 H   0  0  0  0  0  0  0  0  0  0  0  0
    1.1913    1.0459    0.2215 H   0  0  0  0  0  0  0  0  0  0  0  0
    2.0365   -0.4778    0.2269 H   0  0  0  0  0  0  0  0  0  0  0  0
    3.4167    2.2346    0.6684 H   0  0  0  0  0  0  0  0  0  0  0  0
    3.0566    1.0207    1.9032 H   0  0  0  0  0  0  0  0  0  0  0  0
    9.4493   -2.3065   -3.7110 H   0  0  0  0  0  0  0  0  0  0  0  0
    8.3657   -3.4422   -4.5263 H   0  0  0  0  0  0  0  0  0  0  0  0
    8.6565   -0.4356   -5.0498 H   0  0  0  0  0  0  0  0  0  0  0  0
    9.0781   -1.7391   -6.1646 H   0  0  0  0  0  0  0  0  0  0  0  0
    6.7259   -2.3115   -6.4907 H   0  0  0  0  0  0  0  0  0  0  0  0
    6.8861   -0.5731   -6.6925 H   0  0  0  0  0  0  0  0  0  0  0  0
    0.2388    4.6171   -2.1915 H   0  0  0  0  0  0  0  0  0  0  0  0
    0.9060    2.7741   -0.7894 H   0  0  0  0  0  0  0  0  0  0  0  0
    3.2468    1.1458   -4.0169 H   0  0  0  0  0  0  0  0  0  0  0  0
  1  2  1  0
  2  3  1  0
  2  5  1  0
  3  4  1  0
  5  6  2  0
  5 10  1  0
  6  7  1  0
  7  8  2  0
  8  9  1  0
  9 10  2  0
 10 11  1  0
 11 12  1  0
 11 15  2  0
 12 13  1  0
 12 68  1  0
 13 14  1  0
 15 16  1  0
 15 67  1  0
 16 17  1  0
 17 18  1  0
 17 19  1  0
 17 20  1  0
 20 21  1  0
 21 22  1  0
 22 23  1  0
 22 66  2  0
 23 24  1  0
 23 65  1  0
 24 25  1  0
 25 26  1  0
 25 63  1  0
 26 27  1  0
 26 62  2  0
 27 28  1  0
 27 55  1  0
 28 29  1  0
 29 30  1  0
 29 54  2  0
 30 31  1  0
 30 34  1  0
 31 32  1  0
 31 33  1  0
 34 35  1  0
 34 53  1  0
 35 36  1  0
 35 52  2  0
 36 37  1  0
 36 51  1  0
 36 73  1  0
 37 38  1  0
 38 39  1  0
 39 40  1  0
 39 50  1  0
 40 41  1  0
 40 49  2  0
 42 43  1  0
 43 44  1  0
 43 47  1  0
 43 48  1  0
 44 45  1  0
 44 46  1  0
 50 51  1  0
 55 56  1  0
 56 57  1  0
 56 61  1  0
 57 58  1  0
 58 59  1  0
 58 71  1  0
 59 60  1  0
 60 61  1  0
 63 64  1  0
 64 65  1  0
 67 68  2  0
 67 72  1  0
 68 69  1  0
 69 70  2  0
 70 71  1  0
 71 72  2  0
  1 74  1  0
  1 75  1  0
  1 76  1  0
  2 77  1  1
  4 78  1  0
  4 79  1  0
  4 80  1  0
  7 81  1  0
  8 82  1  0
  9 83  1  0
 13 84  1  0
 13 85  1  0
 14 86  1  0
 14 87  1  0
 14 88  1  0
 16 89  1  0
 16 90  1  0
 18 91  1  0
 18 92  1  0
 18 93  1  0
 19 94  1  0
 19 95  1  0
 19 96  1  0
 20 97  1  0
 20 98  1  0
 23 99  1  1
 24100  1  0
 27101  1  6
 28102  1  0
 30103  1  1
 31104  1  0
 32105  1  0
 32106  1  0
 32107  1  0
 33108  1  0
 33109  1  0
 33110  1  0
 37111  1  0
 37112  1  0
 38113  1  0
 38114  1  0
 45115  1  0
 45116  1  0
 45117  1  0
 46118  1  0
 46119  1  0
 46120  1  0
 47121  1  0
 47122  1  0
 47123  1  0
 48124  1  0
 48125  1  0
 48126  1  0
 50127  1  0
 50128  1  0
 51129  1  0
 51130  1  0
 53131  1  0
 53132  1  0
 53133  1  0
 55134  1  0
 55135  1  0
 56136  1  6
 57137  1  0
 57138  1  0
 59139  1  0
 59140  1  0
 60141  1  0
 60142  1  0
 63143  1  0
 63144  1  0
 64145  1  0
 64146  1  0
 65147  1  0
 65148  1  0
 69149  1  0
 70150  1  0
 72151  1  0
 41 42  3  0
M  END
$$$$
