mol_ETKDG2_11
     RDKit          3D

151157  0  0  0  0  0  0  0  0999 V2000
    1.9362    7.7505   -7.8382 C   0  0  0  0  0  0  0  0  0  0  0  0
    1.8708    6.2547   -7.5119 C   0  0  2  0  0  0  0  0  0  0  0  0
    3.1479    5.6506   -7.7641 O   0  0  0  0  0  0  0  0  0  0  0  0
    4.0535    5.7976   -6.6799 C   0  0  0  0  0  0  0  0  0  0  0  0
    0.8029    5.5356   -8.3343 C   0  0  0  0  0  0  0  0  0  0  0  0
    0.5117    6.0638   -9.5604 N   0  0  0  0  0  0  0  0  0  0  0  0
   -0.4272    5.4544  -10.3143 C   0  0  0  0  0  0  0  0  0  0  0  0
   -1.1223    4.3328   -9.9102 C   0  0  0  0  0  0  0  0  0  0  0  0
   -0.8277    3.7974   -8.6625 C   0  0  0  0  0  0  0  0  0  0  0  0
    0.1543    4.3845   -7.8529 C   0  0  0  0  0  0  0  0  0  0  0  0
    0.4450    3.7835   -6.5442 C   0  0  0  0  0  0  0  0  0  0  0  0
   -0.3162    4.0195   -5.4159 N   0  0  0  0  0  0  0  0  0  0  0  0
   -1.5473    4.8000   -5.3647 C   0  0  0  0  0  0  0  0  0  0  0  0
   -1.3054    6.2638   -5.0414 C   0  0  0  0  0  0  0  0  0  0  0  0
    1.4814    2.9215   -6.1792 C   0  0  0  0  0  0  0  0  0  0  0  0
    2.5371    2.3644   -7.1063 C   0  0  0  0  0  0  0  0  0  0  0  0
    2.2995    0.9317   -7.6721 C   0  0  0  0  0  0  0  0  0  0  0  0
    3.3252    0.7103   -8.8113 C   0  0  0  0  0  0  0  0  0  0  0  0
    0.8971    0.7591   -8.2727 C   0  0  0  0  0  0  0  0  0  0  0  0
    2.5103   -0.1569   -6.5982 C   0  0  0  0  0  0  0  0  0  0  0  0
    3.8672   -0.1074   -6.1311 O   0  0  0  0  0  0  0  0  0  0  0  0
    4.1731   -0.9985   -5.1487 C   0  0  0  0  0  0  0  0  0  0  0  0
    5.6251   -0.7992   -4.7065 C   0  0  1  0  0  0  0  0  0  0  0  0
    5.9744   -1.8054   -3.6917 N   0  0  0  0  0  0  0  0  0  0  0  0
    7.2575   -1.5556   -3.1584 N   0  0  0  0  0  0  0  0  0  0  0  0
    7.5504   -1.4678   -1.7930 C   0  0  0  0  0  0  0  0  0  0  0  0
    6.3749   -1.2444   -0.8080 C   0  0  1  0  0  0  0  0  0  0  0  0
    6.6957   -1.8953    0.4569 N   0  0  0  0  0  0  0  0  0  0  0  0
    6.6795   -3.2672    0.5836 C   0  0  0  0  0  0  0  0  0  0  0  0
    7.0359   -3.7637    2.0045 C   0  0  2  0  0  0  0  0  0  0  0  0
    7.6526   -5.1870    2.0051 C   0  0  0  0  0  0  0  0  0  0  0  0
    7.8597   -5.7027    3.4342 C   0  0  0  0  0  0  0  0  0  0  0  0
    9.0036   -5.1907    1.2752 C   0  0  0  0  0  0  0  0  0  0  0  0
    5.8051   -3.6322    2.8279 N   0  0  0  0  0  0  0  0  0  0  0  0
    5.6088   -2.3921    3.4569 C   0  0  0  0  0  0  0  0  0  0  0  0
    4.3203   -2.1732    4.2848 C   0  0  0  0  0  0  0  0  0  0  0  0
    4.3868   -2.9958    5.5822 C   0  0  0  0  0  0  0  0  0  0  0  0
    3.1703   -2.7137    6.4597 C   0  0  0  0  0  0  0  0  0  0  0  0
    3.0619   -1.2824    6.6996 N   0  0  0  0  0  0  0  0  0  0  0  0
    3.3816   -0.7830    7.9573 C   0  0  0  0  0  0  0  0  0  0  0  0
    3.5095    0.6486    8.1159 C   0  0  0  0  0  0  0  0  0  0  0  0
    3.6581    1.8373    8.2221 C   0  0  0  0  0  0  0  0  0  0  0  0
    3.8875    3.3011    8.3380 C   0  0  0  0  0  0  0  0  0  0  0  0
    5.3036    3.5837    7.9854 N   0  0  0  0  0  0  0  0  0  0  0  0
    5.6377    3.3295    6.5805 C   0  0  0  0  0  0  0  0  0  0  0  0
    5.7816    4.9134    8.3661 C   0  0  0  0  0  0  0  0  0  0  0  0
    2.8691    4.0285    7.4336 C   0  0  0  0  0  0  0  0  0  0  0  0
    3.5774    3.6743    9.8070 C   0  0  0  0  0  0  0  0  0  0  0  0
    3.5841   -1.4887    8.9389 O   0  0  0  0  0  0  0  0  0  0  0  0
    2.9272   -0.4692    5.4958 C   0  0  0  0  0  0  0  0  0  0  0  0
    4.1385   -0.6789    4.5977 C   0  0  0  0  0  0  0  0  0  0  0  0
    6.4769   -1.5114    3.4040 O   0  0  0  0  0  0  0  0  0  0  0  0
    4.6619   -4.4629    2.4454 C   0  0  0  0  0  0  0  0  0  0  0  0
    6.3220   -4.0122   -0.3253 O   0  0  0  0  0  0  0  0  0  0  0  0
    6.1881    0.2747   -0.6282 C   0  0  0  0  0  0  0  0  0  0  0  0
    4.7430    0.7374   -0.3934 C   0  0  1  0  0  0  0  0  0  0  0  0
    3.9863    0.9728   -1.7267 C   0  0  0  0  0  0  0  0  0  0  0  0
    2.6170    1.4289   -1.4291 N   0  0  0  0  0  0  0  0  0  0  0  0
    1.9016    0.4571   -0.5663 C   0  0  0  0  0  0  0  0  0  0  0  0
    2.7158    0.2245    0.7174 C   0  0  0  0  0  0  0  0  0  0  0  0
    4.0546   -0.2125    0.4389 O   0  0  0  0  0  0  0  0  0  0  0  0
    8.7183   -1.4490   -1.3824 O   0  0  0  0  0  0  0  0  0  0  0  0
    8.3345   -1.7075   -4.1432 C   0  0  0  0  0  0  0  0  0  0  0  0
    8.0659   -0.8170   -5.3605 C   0  0  0  0  0  0  0  0  0  0  0  0
    6.6220   -0.9468   -5.8637 C   0  0  0  0  0  0  0  0  0  0  0  0
    3.3771   -1.7677   -4.6283 O   0  0  0  0  0  0  0  0  0  0  0  0
    1.3997    2.7451   -4.7531 C   0  0  0  0  0  0  0  0  0  0  0  0
    0.2618    3.4205   -4.3146 C   0  0  0  0  0  0  0  0  0  0  0  0
   -0.1144    3.4312   -2.9657 C   0  0  0  0  0  0  0  0  0  0  0  0
    0.6911    2.7473   -2.0488 C   0  0  0  0  0  0  0  0  0  0  0  0
    1.8472    2.0503   -2.4195 C   0  0  0  0  0  0  0  0  0  0  0  0
    2.1963    2.0770   -3.7831 C   0  0  0  0  0  0  0  0  0  0  0  0
    3.2004   -2.5606    3.5909 F   0  0  0  0  0  0  0  0  0  0  0  0
    0.9572    8.2284   -7.7176 H   0  0  0  0  0  0  0  0  0  0  0  0
    2.6453    8.2650   -7.1801 H   0  0  0  0  0  0  0  0  0  0  0  0
    2.2880    7.9230   -8.8626 H   0  0  0  0  0  0  0  0  0  0  0  0
    1.6153    6.1649   -6.4494 H   0  0  0  0  0  0  0  0  0  0  0  0
    3.6356    5.3680   -5.7647 H   0  0  0  0  0  0  0  0  0  0  0  0
    4.9709    5.2567   -6.9255 H   0  0  0  0  0  0  0  0  0  0  0  0
    4.3060    6.8484   -6.5214 H   0  0  0  0  0  0  0  0  0  0  0  0
   -0.6108    5.9100  -11.2829 H   0  0  0  0  0  0  0  0  0  0  0  0
   -1.8699    3.8816  -10.5513 H   0  0  0  0  0  0  0  0  0  0  0  0
   -1.3576    2.9110   -8.3229 H   0  0  0  0  0  0  0  0  0  0  0  0
   -2.0677    4.6978   -6.3207 H   0  0  0  0  0  0  0  0  0  0  0  0
   -2.2005    4.3449   -4.6126 H   0  0  0  0  0  0  0  0  0  0  0  0
   -0.7831    6.3817   -4.0863 H   0  0  0  0  0  0  0  0  0  0  0  0
   -0.6998    6.7478   -5.8139 H   0  0  0  0  0  0  0  0  0  0  0  0
   -2.2578    6.7995   -4.9776 H   0  0  0  0  0  0  0  0  0  0  0  0
    2.6380    3.0521   -7.9558 H   0  0  0  0  0  0  0  0  0  0  0  0
    3.5070    2.4095   -6.5942 H   0  0  0  0  0  0  0  0  0  0  0  0
    4.3547    0.8631   -8.4671 H   0  0  0  0  0  0  0  0  0  0  0  0
    3.2549   -0.3069   -9.2146 H   0  0  0  0  0  0  0  0  0  0  0  0
    3.1500    1.4063   -9.6398 H   0  0  0  0  0  0  0  0  0  0  0  0
    0.1127    0.8806   -7.5195 H   0  0  0  0  0  0  0  0  0  0  0  0
    0.7232    1.4765   -9.0798 H   0  0  0  0  0  0  0  0  0  0  0  0
    0.7743   -0.2414   -8.7040 H   0  0  0  0  0  0  0  0  0  0  0  0
    1.8174   -0.0207   -5.7618 H   0  0  0  0  0  0  0  0  0  0  0  0
    2.3311   -1.1503   -7.0287 H   0  0  0  0  0  0  0  0  0  0  0  0
    5.6853    0.2035   -4.2630 H   0  0  0  0  0  0  0  0  0  0  0  0
    5.2258   -1.9503   -3.0148 H   0  0  0  0  0  0  0  0  0  0  0  0
    5.4647   -1.7193   -1.1742 H   0  0  0  0  0  0  0  0  0  0  0  0
    7.0317   -1.3399    1.2429 H   0  0  0  0  0  0  0  0  0  0  0  0
    7.8042   -3.0906    2.4070 H   0  0  0  0  0  0  0  0  0  0  0  0
    6.9984   -5.8905    1.4774 H   0  0  0  0  0  0  0  0  0  0  0  0
    6.9078   -5.8121    3.9621 H   0  0  0  0  0  0  0  0  0  0  0  0
    8.3406   -6.6873    3.4268 H   0  0  0  0  0  0  0  0  0  0  0  0
    8.4937   -5.0230    4.0137 H   0  0  0  0  0  0  0  0  0  0  0  0
    9.4591   -6.1867    1.3053 H   0  0  0  0  0  0  0  0  0  0  0  0
    8.8893   -4.9160    0.2217 H   0  0  0  0  0  0  0  0  0  0  0  0
    9.7062   -4.4862    1.7340 H   0  0  0  0  0  0  0  0  0  0  0  0
    4.4276   -4.0695    5.3724 H   0  0  0  0  0  0  0  0  0  0  0  0
    5.3047   -2.7451    6.1306 H   0  0  0  0  0  0  0  0  0  0  0  0
    2.2508   -3.0434    5.9623 H   0  0  0  0  0  0  0  0  0  0  0  0
    3.2539   -3.2698    7.3992 H   0  0  0  0  0  0  0  0  0  0  0  0
    6.7235    3.3831    6.4360 H   0  0  0  0  0  0  0  0  0  0  0  0
    5.3451    2.3241    6.2612 H   0  0  0  0  0  0  0  0  0  0  0  0
    5.1771    4.0564    5.9020 H   0  0  0  0  0  0  0  0  0  0  0  0
    5.7550    5.0564    9.4510 H   0  0  0  0  0  0  0  0  0  0  0  0
    6.8355    5.0375    8.0859 H   0  0  0  0  0  0  0  0  0  0  0  0
    5.2115    5.7172    7.8878 H   0  0  0  0  0  0  0  0  0  0  0  0
    1.8408    3.8288    7.7607 H   0  0  0  0  0  0  0  0  0  0  0  0
    3.0107    5.1145    7.4537 H   0  0  0  0  0  0  0  0  0  0  0  0
    2.9304    3.6969    6.3904 H   0  0  0  0  0  0  0  0  0  0  0  0
    4.2911    3.2088   10.4979 H   0  0  0  0  0  0  0  0  0  0  0  0
    3.5968    4.7581    9.9705 H   0  0  0  0  0  0  0  0  0  0  0  0
    2.5780    3.3272   10.1010 H   0  0  0  0  0  0  0  0  0  0  0  0
    2.0086   -0.7836    4.9854 H   0  0  0  0  0  0  0  0  0  0  0  0
    2.8134    0.5908    5.7331 H   0  0  0  0  0  0  0  0  0  0  0  0
    5.0320   -0.2774    5.0925 H   0  0  0  0  0  0  0  0  0  0  0  0
    3.9984   -0.1168    3.6676 H   0  0  0  0  0  0  0  0  0  0  0  0
    4.0142   -4.6501    3.3034 H   0  0  0  0  0  0  0  0  0  0  0  0
    4.0868   -3.9440    1.6719 H   0  0  0  0  0  0  0  0  0  0  0  0
    4.9882   -5.4343    2.0697 H   0  0  0  0  0  0  0  0  0  0  0  0
    6.7841    0.5988    0.2367 H   0  0  0  0  0  0  0  0  0  0  0  0
    6.5980    0.8290   -1.4829 H   0  0  0  0  0  0  0  0  0  0  0  0
    4.7839    1.6923    0.1499 H   0  0  0  0  0  0  0  0  0  0  0  0
    4.5290    1.7282   -2.3075 H   0  0  0  0  0  0  0  0  0  0  0  0
    3.9399    0.0416   -2.3014 H   0  0  0  0  0  0  0  0  0  0  0  0
    0.9014    0.7950   -0.2812 H   0  0  0  0  0  0  0  0  0  0  0  0
    1.7953   -0.4887   -1.1132 H   0  0  0  0  0  0  0  0  0  0  0  0
    2.7635    1.1406    1.3190 H   0  0  0  0  0  0  0  0  0  0  0  0
    2.2365   -0.5482    1.3258 H   0  0  0  0  0  0  0  0  0  0  0  0
    9.3041   -1.4532   -3.7040 H   0  0  0  0  0  0  0  0  0  0  0  0
    8.3694   -2.7636   -4.4361 H   0  0  0  0  0  0  0  0  0  0  0  0
    8.2402    0.2295   -5.0779 H   0  0  0  0  0  0  0  0  0  0  0  0
    8.7700   -1.0548   -6.1650 H   0  0  0  0  0  0  0  0  0  0  0  0
    6.4892   -1.9206   -6.3538 H   0  0  0  0  0  0  0  0  0  0  0  0
    6.4364   -0.1860   -6.6317 H   0  0  0  0  0  0  0  0  0  0  0  0
   -0.9909    3.9691   -2.6191 H   0  0  0  0  0  0  0  0  0  0  0  0
    0.4096    2.8055   -0.9997 H   0  0  0  0  0  0  0  0  0  0  0  0
    3.0883    1.5738   -4.1297 H   0  0  0  0  0  0  0  0  0  0  0  0
  1  2  1  0
  2  3  1  0
  2  5  1  0
  3  4  1  0
  5  6  2  0
  5 10  1  0
  6  7  1  0
  7  8  2  0
  8  9  1  0
  9 10  2  0
 10 11  1  0
 11 12  1  0
 11 15  2  0
 12 13  1  0
 12 68  1  0
 13 14  1  0
 15 16  1  0
 15 67  1  0
 16 17  1  0
 17 18  1  0
 17 19  1  0
 17 20  1  0
 20 21  1  0
 21 22  1  0
 22 23  1  0
 22 66  2  0
 23 24  1  0
 23 65  1  0
 24 25  1  0
 25 26  1  0
 25 63  1  0
 26 27  1  0
 26 62  2  0
 27 28  1  0
 27 55  1  0
 28 29  1  0
 29 30  1  0
 29 54  2  0
 30 31  1  0
 30 34  1  0
 31 32  1  0
 31 33  1  0
 34 35  1  0
 34 53  1  0
 35 36  1  0
 35 52  2  0
 36 37  1  0
 36 51  1  0
 36 73  1  0
 37 38  1  0
 38 39  1  0
 39 40  1  0
 39 50  1  0
 40 41  1  0
 40 49  2  0
 42 43  1  0
 43 44  1  0
 43 47  1  0
 43 48  1  0
 44 45  1  0
 44 46  1  0
 50 51  1  0
 55 56  1  0
 56 57  1  0
 56 61  1  0
 57 58  1  0
 58 59  1  0
 58 71  1  0
 59 60  1  0
 60 61  1  0
 63 64  1  0
 64 65  1  0
 67 68  2  0
 67 72  1  0
 68 69  1  0
 69 70  2  0
 70 71  1  0
 71 72  2  0
  1 74  1  0
  1 75  1  0
  1 76  1  0
  2 77  1  1
  4 78  1  0
  4 79  1  0
  4 80  1  0
  7 81  1  0
  8 82  1  0
  9 83  1  0
 13 84  1  0
 13 85  1  0
 14 86  1  0
 14 87  1  0
 14 88  1  0
 16 89  1  0
 16 90  1  0
 18 91  1  0
 18 92  1  0
 18 93  1  0
 19 94  1  0
 19 95  1  0
 19 96  1  0
 20 97  1  0
 20 98  1  0
 23 99  1  1
 24100  1  0
 27101  1  6
 28102  1  0
 30103  1  1
 31104  1  0
 32105  1  0
 32106  1  0
 32107  1  0
 33108  1  0
 33109  1  0
 33110  1  0
 37111  1  0
 37112  1  0
 38113  1  0
 38114  1  0
 45115  1  0
 45116  1  0
 45117  1  0
 46118  1  0
 46119  1  0
 46120  1  0
 47121  1  0
 47122  1  0
 47123  1  0
 48124  1  0
 48125  1  0
 48126  1  0
 50127  1  0
 50128  1  0
 51129  1  0
 51130  1  0
 53131  1  0
 53132  1  0
 53133  1  0
 55134  1  0
 55135  1  0
 56136  1  1
 57137  1  0
 57138  1  0
 59139  1  0
 59140  1  0
 60141  1  0
 60142  1  0
 63143  1  0
 63144  1  0
 64145  1  0
 64146  1  0
 65147  1  0
 65148  1  0
 69149  1  0
 70150  1  0
 72151  1  0
 41 42  3  0
M  END
$$$$
