mol_ETKDG5_26
     RDKit          3D

151157  0  0  0  0  0  0  0  0999 V2000
    2.9369    7.5255   -8.5203 C   0  0  0  0  0  0  0  0  0  0  0  0
    2.6563    6.1029   -8.0267 C   0  0  2  0  0  0  0  0  0  0  0  0
    3.8488    5.3115   -8.1378 O   0  0  0  0  0  0  0  0  0  0  0  0
    4.7253    5.4711   -7.0317 C   0  0  0  0  0  0  0  0  0  0  0  0
    1.5347    5.4264   -8.8159 C   0  0  0  0  0  0  0  0  0  0  0  0
    1.2978    5.8914  -10.0786 N   0  0  0  0  0  0  0  0  0  0  0  0
    0.3154    5.3113  -10.7984 C   0  0  0  0  0  0  0  0  0  0  0  0
   -0.4773    4.2857  -10.3246 C   0  0  0  0  0  0  0  0  0  0  0  0
   -0.2416    3.8186   -9.0376 C   0  0  0  0  0  0  0  0  0  0  0  0
    0.7840    4.3730   -8.2618 C   0  0  0  0  0  0  0  0  0  0  0  0
    1.0119    3.8521   -6.9082 C   0  0  0  0  0  0  0  0  0  0  0  0
    0.3075    4.2865   -5.8026 N   0  0  0  0  0  0  0  0  0  0  0  0
   -0.7805    5.2579   -5.8145 C   0  0  0  0  0  0  0  0  0  0  0  0
   -2.1458    4.5924   -5.7987 C   0  0  0  0  0  0  0  0  0  0  0  0
    1.9400    2.9053   -6.4715 C   0  0  0  0  0  0  0  0  0  0  0  0
    2.9113    2.1541   -7.3522 C   0  0  0  0  0  0  0  0  0  0  0  0
    2.5136    0.7081   -7.7777 C   0  0  0  0  0  0  0  0  0  0  0  0
    3.4735    0.2817   -8.9151 C   0  0  0  0  0  0  0  0  0  0  0  0
    1.0811    0.6237   -8.3242 C   0  0  0  0  0  0  0  0  0  0  0  0
    2.6573   -0.2962   -6.6137 C   0  0  0  0  0  0  0  0  0  0  0  0
    4.0220   -0.3143   -6.1718 O   0  0  0  0  0  0  0  0  0  0  0  0
    4.2856   -1.1694   -5.1457 C   0  0  0  0  0  0  0  0  0  0  0  0
    5.7467   -1.0182   -4.7187 C   0  0  1  0  0  0  0  0  0  0  0  0
    6.0331   -1.9280   -3.5999 N   0  0  0  0  0  0  0  0  0  0  0  0
    7.3292   -1.6993   -3.0870 N   0  0  0  0  0  0  0  0  0  0  0  0
    7.6239   -1.5920   -1.7214 C   0  0  0  0  0  0  0  0  0  0  0  0
    6.4698   -1.2146   -0.7562 C   0  0  1  0  0  0  0  0  0  0  0  0
    6.7507   -1.8180    0.5443 N   0  0  0  0  0  0  0  0  0  0  0  0
    6.6488   -3.1808    0.7211 C   0  0  0  0  0  0  0  0  0  0  0  0
    7.1088   -3.6766    2.1126 C   0  0  2  0  0  0  0  0  0  0  0  0
    7.7388   -5.0922    2.0367 C   0  0  0  0  0  0  0  0  0  0  0  0
    8.0223   -5.6607    3.4295 C   0  0  0  0  0  0  0  0  0  0  0  0
    9.0545   -5.0500    1.2425 C   0  0  0  0  0  0  0  0  0  0  0  0
    5.9402   -3.5653    3.0231 N   0  0  0  0  0  0  0  0  0  0  0  0
    5.7780   -2.3255    3.6625 C   0  0  0  0  0  0  0  0  0  0  0  0
    4.5314   -2.0972    4.5475 C   0  0  0  0  0  0  0  0  0  0  0  0
    4.6720   -2.8797    5.8638 C   0  0  0  0  0  0  0  0  0  0  0  0
    3.5069   -2.5726    6.8004 C   0  0  0  0  0  0  0  0  0  0  0  0
    3.4032   -1.1341    6.9985 N   0  0  0  0  0  0  0  0  0  0  0  0
    3.8301   -0.5832    8.2025 C   0  0  0  0  0  0  0  0  0  0  0  0
    3.9600    0.8545    8.2886 C   0  0  0  0  0  0  0  0  0  0  0  0
    4.0924    2.0492    8.3122 C   0  0  0  0  0  0  0  0  0  0  0  0
    4.2742    3.5255    8.2937 C   0  0  0  0  0  0  0  0  0  0  0  0
    5.6529    3.8311    7.8265 N   0  0  0  0  0  0  0  0  0  0  0  0
    5.9196    3.4389    6.4381 C   0  0  0  0  0  0  0  0  0  0  0  0
    6.0738    5.2186    8.0249 C   0  0  0  0  0  0  0  0  0  0  0  0
    4.0437    4.0114    9.7439 C   0  0  0  0  0  0  0  0  0  0  0  0
    3.1726    4.1342    7.3977 C   0  0  0  0  0  0  0  0  0  0  0  0
    4.1168   -1.2487    9.1900 O   0  0  0  0  0  0  0  0  0  0  0  0
    3.1853   -0.3684    5.7761 C   0  0  0  0  0  0  0  0  0  0  0  0
    4.3484   -0.5934    4.8193 C   0  0  0  0  0  0  0  0  0  0  0  0
    6.6516   -1.4531    3.5776 O   0  0  0  0  0  0  0  0  0  0  0  0
    4.7910   -4.4248    2.7379 C   0  0  0  0  0  0  0  0  0  0  0  0
    6.1516   -3.9216   -0.1257 O   0  0  0  0  0  0  0  0  0  0  0  0
    6.4123    0.3230   -0.6693 C   0  0  0  0  0  0  0  0  0  0  0  0
    5.0085    0.9251   -0.4999 C   0  0  1  0  0  0  0  0  0  0  0  0
    4.2829    1.1191   -1.8581 C   0  0  0  0  0  0  0  0  0  0  0  0
    2.9656    1.7329   -1.6090 N   0  0  0  0  0  0  0  0  0  0  0  0
    2.1540    0.9135   -0.6760 C   0  0  0  0  0  0  0  0  0  0  0  0
    2.9402    0.6992    0.6285 C   0  0  0  0  0  0  0  0  0  0  0  0
    4.2307    0.1116    0.3964 O   0  0  0  0  0  0  0  0  0  0  0  0
    8.7850   -1.6769   -1.3002 O   0  0  0  0  0  0  0  0  0  0  0  0
    8.3951   -2.0142   -4.0438 C   0  0  0  0  0  0  0  0  0  0  0  0
    8.1783   -1.2546   -5.3569 C   0  0  0  0  0  0  0  0  0  0  0  0
    6.7282   -1.3520   -5.8496 C   0  0  0  0  0  0  0  0  0  0  0  0
    3.4537   -1.8743   -4.5890 O   0  0  0  0  0  0  0  0  0  0  0  0
    1.8603    2.8708   -5.0343 C   0  0  0  0  0  0  0  0  0  0  0  0
    0.8221    3.7202   -4.6541 C   0  0  0  0  0  0  0  0  0  0  0  0
    0.4695    3.8974   -3.3107 C   0  0  0  0  0  0  0  0  0  0  0  0
    1.2016    3.2079   -2.3374 C   0  0  0  0  0  0  0  0  0  0  0  0
    2.2619    2.3470   -2.6500 C   0  0  0  0  0  0  0  0  0  0  0  0
    2.5878    2.2034   -4.0110 C   0  0  0  0  0  0  0  0  0  0  0  0
    3.3809   -2.5152    3.9244 F   0  0  0  0  0  0  0  0  0  0  0  0
    3.6706    8.0239   -7.8794 H   0  0  0  0  0  0  0  0  0  0  0  0
    3.3629    7.5192   -9.5307 H   0  0  0  0  0  0  0  0  0  0  0  0
    2.0272    8.1345   -8.5260 H   0  0  0  0  0  0  0  0  0  0  0  0
    2.3428    6.1774   -6.9774 H   0  0  0  0  0  0  0  0  0  0  0  0
    4.2207    5.2211   -6.0918 H   0  0  0  0  0  0  0  0  0  0  0  0
    5.5665    4.7849   -7.1621 H   0  0  0  0  0  0  0  0  0  0  0  0
    5.1191    6.4900   -6.9876 H   0  0  0  0  0  0  0  0  0  0  0  0
    0.1788    5.7088  -11.8005 H   0  0  0  0  0  0  0  0  0  0  0  0
   -1.2572    3.8551  -10.9434 H   0  0  0  0  0  0  0  0  0  0  0  0
   -0.8503    3.0094   -8.6425 H   0  0  0  0  0  0  0  0  0  0  0  0
   -0.6581    5.9108   -4.9442 H   0  0  0  0  0  0  0  0  0  0  0  0
   -0.6764    5.8962   -6.6967 H   0  0  0  0  0  0  0  0  0  0  0  0
   -2.2841    3.9870   -4.8982 H   0  0  0  0  0  0  0  0  0  0  0  0
   -2.9355    5.3505   -5.8222 H   0  0  0  0  0  0  0  0  0  0  0  0
   -2.2802    3.9360   -6.6646 H   0  0  0  0  0  0  0  0  0  0  0  0
    3.0646    2.7432   -8.2655 H   0  0  0  0  0  0  0  0  0  0  0  0
    3.8909    2.1446   -6.8578 H   0  0  0  0  0  0  0  0  0  0  0  0
    4.5240    0.3491   -8.6089 H   0  0  0  0  0  0  0  0  0  0  0  0
    3.2836   -0.7511   -9.2287 H   0  0  0  0  0  0  0  0  0  0  0  0
    3.3497    0.9209   -9.7961 H   0  0  0  0  0  0  0  0  0  0  0  0
    0.3383    0.9019   -7.5693 H   0  0  0  0  0  0  0  0  0  0  0  0
    0.9542    1.2720   -9.1947 H   0  0  0  0  0  0  0  0  0  0  0  0
    0.8406   -0.3970   -8.6469 H   0  0  0  0  0  0  0  0  0  0  0  0
    1.9977   -0.0232   -5.7825 H   0  0  0  0  0  0  0  0  0  0  0  0
    2.3841   -1.3049   -6.9495 H   0  0  0  0  0  0  0  0  0  0  0  0
    5.8723    0.0198   -4.3833 H   0  0  0  0  0  0  0  0  0  0  0  0
    5.2755   -1.9544   -2.9198 H   0  0  0  0  0  0  0  0  0  0  0  0
    5.5225   -1.6335   -1.0939 H   0  0  0  0  0  0  0  0  0  0  0  0
    7.2403   -1.2802    1.2543 H   0  0  0  0  0  0  0  0  0  0  0  0
    7.8983   -3.0005    2.4655 H   0  0  0  0  0  0  0  0  0  0  0  0
    7.0666   -5.7803    1.5128 H   0  0  0  0  0  0  0  0  0  0  0  0
    7.0996   -5.8169    3.9945 H   0  0  0  0  0  0  0  0  0  0  0  0
    8.5282   -6.6305    3.3581 H   0  0  0  0  0  0  0  0  0  0  0  0
    8.6663   -4.9890    4.0087 H   0  0  0  0  0  0  0  0  0  0  0  0
    9.4927   -6.0507    1.1663 H   0  0  0  0  0  0  0  0  0  0  0  0
    8.8960   -4.6824    0.2243 H   0  0  0  0  0  0  0  0  0  0  0  0
    9.7900   -4.3975    1.7264 H   0  0  0  0  0  0  0  0  0  0  0  0
    4.7016   -3.9590    5.6822 H   0  0  0  0  0  0  0  0  0  0  0  0
    5.6197   -2.6143    6.3508 H   0  0  0  0  0  0  0  0  0  0  0  0
    2.5615   -2.9230    6.3692 H   0  0  0  0  0  0  0  0  0  0  0  0
    3.6455   -3.0936    7.7531 H   0  0  0  0  0  0  0  0  0  0  0  0
    6.9908    3.5246    6.2228 H   0  0  0  0  0  0  0  0  0  0  0  0
    5.6618    2.3925    6.2452 H   0  0  0  0  0  0  0  0  0  0  0  0
    5.3853    4.0673    5.7161 H   0  0  0  0  0  0  0  0  0  0  0  0
    6.0851    5.4908    9.0840 H   0  0  0  0  0  0  0  0  0  0  0  0
    7.1045    5.3605    7.6795 H   0  0  0  0  0  0  0  0  0  0  0  0
    5.4406    5.9291    7.4833 H   0  0  0  0  0  0  0  0  0  0  0  0
    4.8197    3.6343   10.4224 H   0  0  0  0  0  0  0  0  0  0  0  0
    4.0282    5.1048    9.8159 H   0  0  0  0  0  0  0  0  0  0  0  0
    3.0814    3.6555   10.1340 H   0  0  0  0  0  0  0  0  0  0  0  0
    2.1762    3.9411    7.8167 H   0  0  0  0  0  0  0  0  0  0  0  0
    3.2781    5.2208    7.3041 H   0  0  0  0  0  0  0  0  0  0  0  0
    3.1747    3.7021    6.3902 H   0  0  0  0  0  0  0  0  0  0  0  0
    2.2457   -0.7171    5.3291 H   0  0  0  0  0  0  0  0  0  0  0  0
    3.0634    0.6983    5.9803 H   0  0  0  0  0  0  0  0  0  0  0  0
    5.2616   -0.1651    5.2517 H   0  0  0  0  0  0  0  0  0  0  0  0
    4.1484   -0.0641    3.8807 H   0  0  0  0  0  0  0  0  0  0  0  0
    4.1892   -4.5795    3.6329 H   0  0  0  0  0  0  0  0  0  0  0  0
    4.1732   -3.9503    1.9689 H   0  0  0  0  0  0  0  0  0  0  0  0
    5.1143   -5.4096    2.3947 H   0  0  0  0  0  0  0  0  0  0  0  0
    7.0150    0.6460    0.1906 H   0  0  0  0  0  0  0  0  0  0  0  0
    6.8833    0.7877   -1.5458 H   0  0  0  0  0  0  0  0  0  0  0  0
    5.1311    1.9149   -0.0359 H   0  0  0  0  0  0  0  0  0  0  0  0
    4.8977    1.7657   -2.4962 H   0  0  0  0  0  0  0  0  0  0  0  0
    4.1440    0.1522   -2.3531 H   0  0  0  0  0  0  0  0  0  0  0  0
    1.1953    1.3778   -0.4256 H   0  0  0  0  0  0  0  0  0  0  0  0
    1.9477   -0.0567   -1.1459 H   0  0  0  0  0  0  0  0  0  0  0  0
    3.0771    1.6500    1.1601 H   0  0  0  0  0  0  0  0  0  0  0  0
    2.3871    0.0250    1.2894 H   0  0  0  0  0  0  0  0  0  0  0  0
    9.3754   -1.7590   -3.6281 H   0  0  0  0  0  0  0  0  0  0  0  0
    8.3784   -3.0978   -4.2139 H   0  0  0  0  0  0  0  0  0  0  0  0
    8.4176   -0.1955   -5.1960 H   0  0  0  0  0  0  0  0  0  0  0  0
    8.8653   -1.6269   -6.1246 H   0  0  0  0  0  0  0  0  0  0  0  0
    6.5367   -2.3651   -6.2291 H   0  0  0  0  0  0  0  0  0  0  0  0
    6.5861   -0.6715   -6.6981 H   0  0  0  0  0  0  0  0  0  0  0  0
   -0.3332    4.5642   -3.0126 H   0  0  0  0  0  0  0  0  0  0  0  0
    0.9476    3.3931   -1.2960 H   0  0  0  0  0  0  0  0  0  0  0  0
    3.4090    1.5664   -4.3115 H   0  0  0  0  0  0  0  0  0  0  0  0
  1  2  1  0
  2  3  1  0
  2  5  1  0
  3  4  1  0
  5  6  2  0
  5 10  1  0
  6  7  1  0
  7  8  2  0
  8  9  1  0
  9 10  2  0
 10 11  1  0
 11 12  1  0
 11 15  2  0
 12 13  1  0
 12 68  1  0
 13 14  1  0
 15 16  1  0
 15 67  1  0
 16 17  1  0
 17 18  1  0
 17 19  1  0
 17 20  1  0
 20 21  1  0
 21 22  1  0
 22 23  1  0
 22 66  2  0
 23 24  1  0
 23 65  1  0
 24 25  1  0
 25 26  1  0
 25 63  1  0
 26 27  1  0
 26 62  2  0
 27 28  1  0
 27 55  1  0
 28 29  1  0
 29 30  1  0
 29 54  2  0
 30 31  1  0
 30 34  1  0
 31 32  1  0
 31 33  1  0
 34 35  1  0
 34 53  1  0
 35 36  1  0
 35 52  2  0
 36 37  1  0
 36 51  1  0
 36 73  1  0
 37 38  1  0
 38 39  1  0
 39 40  1  0
 39 50  1  0
 40 41  1  0
 40 49  2  0
 42 43  1  0
 43 44  1  0
 43 47  1  0
 43 48  1  0
 44 45  1  0
 44 46  1  0
 50 51  1  0
 55 56  1  0
 56 57  1  0
 56 61  1  0
 57 58  1  0
 58 59  1  0
 58 71  1  0
 59 60  1  0
 60 61  1  0
 63 64  1  0
 64 65  1  0
 67 68  2  0
 67 72  1  0
 68 69  1  0
 69 70  2  0
 70 71  1  0
 71 72  2  0
  1 74  1  0
  1 75  1  0
  1 76  1  0
  2 77  1  1
  4 78  1  0
  4 79  1  0
  4 80  1  0
  7 81  1  0
  8 82  1  0
  9 83  1  0
 13 84  1  0
 13 85  1  0
 14 86  1  0
 14 87  1  0
 14 88  1  0
 16 89  1  0
 16 90  1  0
 18 91  1  0
 18 92  1  0
 18 93  1  0
 19 94  1  0
 19 95  1  0
 19 96  1  0
 20 97  1  0
 20 98  1  0
 23 99  1  1
 24100  1  0
 27101  1  6
 28102  1  0
 30103  1  1
 31104  1  0
 32105  1  0
 32106  1  0
 32107  1  0
 33108  1  0
 33109  1  0
 33110  1  0
 37111  1  0
 37112  1  0
 38113  1  0
 38114  1  0
 45115  1  0
 45116  1  0
 45117  1  0
 46118  1  0
 46119  1  0
 46120  1  0
 47121  1  0
 47122  1  0
 47123  1  0
 48124  1  0
 48125  1  0
 48126  1  0
 50127  1  0
 50128  1  0
 51129  1  0
 51130  1  0
 53131  1  0
 53132  1  0
 53133  1  0
 55134  1  0
 55135  1  0
 56136  1  1
 57137  1  0
 57138  1  0
 59139  1  0
 59140  1  0
 60141  1  0
 60142  1  0
 63143  1  0
 63144  1  0
 64145  1  0
 64146  1  0
 65147  1  0
 65148  1  0
 69149  1  0
 70150  1  0
 72151  1  0
 41 42  3  0
M  END
$$$$
