mol_ETKDG3_20
     RDKit          3D

151157  0  0  0  0  0  0  0  0999 V2000
    2.4677    7.2899   -8.5220 C   0  0  0  0  0  0  0  0  0  0  0  0
    2.3337    5.8486   -8.0166 C   0  0  2  0  0  0  0  0  0  0  0  0
    3.5221    5.1115   -8.3376 O   0  0  0  0  0  0  0  0  0  0  0  0
    4.5697    5.3097   -7.3990 C   0  0  0  0  0  0  0  0  0  0  0  0
    1.1290    5.1433   -8.6335 C   0  0  0  0  0  0  0  0  0  0  0  0
    0.7928    5.5040   -9.9091 N   0  0  0  0  0  0  0  0  0  0  0  0
   -0.2764    4.9088  -10.4803 C   0  0  0  0  0  0  0  0  0  0  0  0
   -1.0601    3.9658   -9.8436 C   0  0  0  0  0  0  0  0  0  0  0  0
   -0.7152    3.5996   -8.5492 C   0  0  0  0  0  0  0  0  0  0  0  0
    0.4004    4.1729   -7.9226 C   0  0  0  0  0  0  0  0  0  0  0  0
    0.7518    3.7381   -6.5639 C   0  0  0  0  0  0  0  0  0  0  0  0
    0.1346    4.2176   -5.4260 N   0  0  0  0  0  0  0  0  0  0  0  0
   -1.0079    5.1205   -5.3930 C   0  0  0  0  0  0  0  0  0  0  0  0
   -0.6033    6.5835   -5.3326 C   0  0  0  0  0  0  0  0  0  0  0  0
    1.7363    2.8345   -6.1588 C   0  0  0  0  0  0  0  0  0  0  0  0
    2.6399    2.0460   -7.0788 C   0  0  0  0  0  0  0  0  0  0  0  0
    2.2098    0.5887   -7.4204 C   0  0  0  0  0  0  0  0  0  0  0  0
    3.0719    0.1229   -8.6185 C   0  0  0  0  0  0  0  0  0  0  0  0
    0.7364    0.4825   -7.8395 C   0  0  0  0  0  0  0  0  0  0  0  0
    2.4497   -0.3719   -6.2351 C   0  0  0  0  0  0  0  0  0  0  0  0
    3.8479   -0.3875   -5.9089 O   0  0  0  0  0  0  0  0  0  0  0  0
    4.1785   -1.1889   -4.8583 C   0  0  0  0  0  0  0  0  0  0  0  0
    5.6714   -1.0535   -4.5533 C   0  0  1  0  0  0  0  0  0  0  0  0
    6.0326   -1.9684   -3.4621 N   0  0  0  0  0  0  0  0  0  0  0  0
    7.3593   -1.7564   -3.0436 N   0  0  0  0  0  0  0  0  0  0  0  0
    7.7454   -1.5307   -1.7190 C   0  0  0  0  0  0  0  0  0  0  0  0
    6.6580   -1.0793   -0.7118 C   0  0  1  0  0  0  0  0  0  0  0  0
    6.9488   -1.6851    0.5874 N   0  0  0  0  0  0  0  0  0  0  0  0
    6.7132   -3.0287    0.7916 C   0  0  0  0  0  0  0  0  0  0  0  0
    7.0804   -3.5388    2.2050 C   0  0  2  0  0  0  0  0  0  0  0  0
    7.5432   -5.0182    2.1879 C   0  0  0  0  0  0  0  0  0  0  0  0
    7.7068   -5.5758    3.6067 C   0  0  0  0  0  0  0  0  0  0  0  0
    8.8804   -5.1499    1.4460 C   0  0  0  0  0  0  0  0  0  0  0  0
    5.9036   -3.2996    3.0819 N   0  0  0  0  0  0  0  0  0  0  0  0
    5.9273   -2.1370    3.8651 C   0  0  0  0  0  0  0  0  0  0  0  0
    4.7023   -1.8141    4.7562 C   0  0  0  0  0  0  0  0  0  0  0  0
    4.6272   -2.7945    5.9402 C   0  0  0  0  0  0  0  0  0  0  0  0
    3.4760   -2.4196    6.8716 C   0  0  0  0  0  0  0  0  0  0  0  0
    3.6334   -1.0403    7.3023 N   0  0  0  0  0  0  0  0  0  0  0  0
    4.0993   -0.7902    8.5901 C   0  0  0  0  0  0  0  0  0  0  0  0
    4.6047    0.5295    8.8902 C   0  0  0  0  0  0  0  0  0  0  0  0
    5.1016    1.6009    9.1053 C   0  0  0  0  0  0  0  0  0  0  0  0
    5.7610    2.9155    9.3299 C   0  0  0  0  0  0  0  0  0  0  0  0
    6.9603    2.7162   10.1836 N   0  0  0  0  0  0  0  0  0  0  0  0
    6.6565    2.2121   11.5301 C   0  0  0  0  0  0  0  0  0  0  0  0
    7.8355    3.8861   10.2997 C   0  0  0  0  0  0  0  0  0  0  0  0
    6.1605    3.4344    7.9255 C   0  0  0  0  0  0  0  0  0  0  0  0
    4.7228    3.8910    9.9236 C   0  0  0  0  0  0  0  0  0  0  0  0
    4.1428   -1.6376    9.4758 O   0  0  0  0  0  0  0  0  0  0  0  0
    3.6437   -0.0625    6.2196 C   0  0  0  0  0  0  0  0  0  0  0  0
    4.7882   -0.3634    5.2621 C   0  0  0  0  0  0  0  0  0  0  0  0
    6.9356   -1.4216    3.9054 O   0  0  0  0  0  0  0  0  0  0  0  0
    4.6426   -3.9219    2.6782 C   0  0  0  0  0  0  0  0  0  0  0  0
    6.1537   -3.7338   -0.0488 O   0  0  0  0  0  0  0  0  0  0  0  0
    6.6817    0.4607   -0.6458 C   0  0  0  0  0  0  0  0  0  0  0  0
    5.3214    1.1229   -0.3814 C   0  0  1  0  0  0  0  0  0  0  0  0
    4.4823    1.2876   -1.6774 C   0  0  0  0  0  0  0  0  0  0  0  0
    3.2043    1.9457   -1.3437 N   0  0  0  0  0  0  0  0  0  0  0  0
    2.4655    1.1957   -0.2984 C   0  0  0  0  0  0  0  0  0  0  0  0
    3.3607    1.0114    0.9378 C   0  0  0  0  0  0  0  0  0  0  0  0
    4.6043    0.3723    0.6127 O   0  0  0  0  0  0  0  0  0  0  0  0
    8.9324   -1.5785   -1.3678 O   0  0  0  0  0  0  0  0  0  0  0  0
    8.3499   -2.0979   -4.0691 C   0  0  0  0  0  0  0  0  0  0  0  0
    8.0478   -1.3385   -5.3692 C   0  0  0  0  0  0  0  0  0  0  0  0
    6.5617   -1.4061   -5.7525 C   0  0  0  0  0  0  0  0  0  0  0  0
    3.3791   -1.8325   -4.1916 O   0  0  0  0  0  0  0  0  0  0  0  0
    1.7842    2.8782   -4.7213 C   0  0  0  0  0  0  0  0  0  0  0  0
    0.7693    3.7352   -4.2977 C   0  0  0  0  0  0  0  0  0  0  0  0
    0.5449    3.9996   -2.9419 C   0  0  0  0  0  0  0  0  0  0  0  0
    1.3752    3.3796   -2.0023 C   0  0  0  0  0  0  0  0  0  0  0  0
    2.4078    2.4994   -2.3565 C   0  0  0  0  0  0  0  0  0  0  0  0
    2.6094    2.2749   -3.7310 C   0  0  0  0  0  0  0  0  0  0  0  0
    3.5292   -1.9107    4.0487 F   0  0  0  0  0  0  0  0  0  0  0  0
    3.2161    7.8353   -7.9400 H   0  0  0  0  0  0  0  0  0  0  0  0
    2.7998    7.3162   -9.5654 H   0  0  0  0  0  0  0  0  0  0  0  0
    1.5213    7.8341   -8.4405 H   0  0  0  0  0  0  0  0  0  0  0  0
    2.2008    5.8944   -6.9286 H   0  0  0  0  0  0  0  0  0  0  0  0
    4.2629    4.9859   -6.3967 H   0  0  0  0  0  0  0  0  0  0  0  0
    5.4243    4.6994   -7.7101 H   0  0  0  0  0  0  0  0  0  0  0  0
    4.8888    6.3581   -7.3755 H   0  0  0  0  0  0  0  0  0  0  0  0
   -0.4951    5.2244  -11.4970 H   0  0  0  0  0  0  0  0  0  0  0  0
   -1.9124    3.5221  -10.3451 H   0  0  0  0  0  0  0  0  0  0  0  0
   -1.3107    2.8522   -8.0297 H   0  0  0  0  0  0  0  0  0  0  0  0
   -1.6303    4.9321   -6.2722 H   0  0  0  0  0  0  0  0  0  0  0  0
   -1.6218    4.8543   -4.5249 H   0  0  0  0  0  0  0  0  0  0  0  0
    0.0116    6.7911   -4.4507 H   0  0  0  0  0  0  0  0  0  0  0  0
   -0.0308    6.8766   -6.2159 H   0  0  0  0  0  0  0  0  0  0  0  0
   -1.4949    7.2189   -5.2823 H   0  0  0  0  0  0  0  0  0  0  0  0
    2.7301    2.6007   -8.0197 H   0  0  0  0  0  0  0  0  0  0  0  0
    3.6546    2.0521   -6.6578 H   0  0  0  0  0  0  0  0  0  0  0  0
    4.1430    0.2284   -8.4124 H   0  0  0  0  0  0  0  0  0  0  0  0
    2.8790   -0.9288   -8.8591 H   0  0  0  0  0  0  0  0  0  0  0  0
    2.8513    0.7120   -9.5154 H   0  0  0  0  0  0  0  0  0  0  0  0
    0.0580    0.7907   -7.0377 H   0  0  0  0  0  0  0  0  0  0  0  0
    0.5339    1.0925   -8.7244 H   0  0  0  0  0  0  0  0  0  0  0  0
    0.4749   -0.5508   -8.0980 H   0  0  0  0  0  0  0  0  0  0  0  0
    1.8662   -0.0649   -5.3598 H   0  0  0  0  0  0  0  0  0  0  0  0
    2.1454   -1.3900   -6.5078 H   0  0  0  0  0  0  0  0  0  0  0  0
    5.8370   -0.0172   -4.2327 H   0  0  0  0  0  0  0  0  0  0  0  0
    5.3225   -2.0243   -2.7309 H   0  0  0  0  0  0  0  0  0  0  0  0
    5.6711   -1.4366   -1.0030 H   0  0  0  0  0  0  0  0  0  0  0  0
    7.5694   -1.2016    1.2319 H   0  0  0  0  0  0  0  0  0  0  0  0
    7.9281   -2.9418    2.5643 H   0  0  0  0  0  0  0  0  0  0  0  0
    6.8127   -5.6427    1.6602 H   0  0  0  0  0  0  0  0  0  0  0  0
    6.7494   -5.6150    4.1355 H   0  0  0  0  0  0  0  0  0  0  0  0
    8.1038   -6.5977    3.5808 H   0  0  0  0  0  0  0  0  0  0  0  0
    8.3961   -4.9628    4.1971 H   0  0  0  0  0  0  0  0  0  0  0  0
    9.2167   -6.1930    1.4321 H   0  0  0  0  0  0  0  0  0  0  0  0
    8.7941   -4.8202    0.4059 H   0  0  0  0  0  0  0  0  0  0  0  0
    9.6636   -4.5523    1.9268 H   0  0  0  0  0  0  0  0  0  0  0  0
    4.4825   -3.8250    5.6021 H   0  0  0  0  0  0  0  0  0  0  0  0
    5.5746   -2.7770    6.4946 H   0  0  0  0  0  0  0  0  0  0  0  0
    2.5138   -2.5087    6.3537 H   0  0  0  0  0  0  0  0  0  0  0  0
    3.4520   -3.1047    7.7260 H   0  0  0  0  0  0  0  0  0  0  0  0
    6.1681    2.9651   12.1607 H   0  0  0  0  0  0  0  0  0  0  0  0
    6.0257    1.3176   11.5102 H   0  0  0  0  0  0  0  0  0  0  0  0
    7.5825    1.9065   12.0334 H   0  0  0  0  0  0  0  0  0  0  0  0
    8.7138    3.6491   10.9141 H   0  0  0  0  0  0  0  0  0  0  0  0
    8.2388    4.1903    9.3287 H   0  0  0  0  0  0  0  0  0  0  0  0
    7.3321    4.7451   10.7588 H   0  0  0  0  0  0  0  0  0  0  0  0
    6.5494    4.4607    7.9553 H   0  0  0  0  0  0  0  0  0  0  0  0
    6.9239    2.7914    7.4645 H   0  0  0  0  0  0  0  0  0  0  0  0
    5.3001    3.4417    7.2430 H   0  0  0  0  0  0  0  0  0  0  0  0
    4.3189    3.5342   10.8783 H   0  0  0  0  0  0  0  0  0  0  0  0
    5.1453    4.8891   10.0818 H   0  0  0  0  0  0  0  0  0  0  0  0
    3.8662    4.0060    9.2473 H   0  0  0  0  0  0  0  0  0  0  0  0
    2.6801   -0.1358    5.7016 H   0  0  0  0  0  0  0  0  0  0  0  0
    3.7231    0.9583    6.5991 H   0  0  0  0  0  0  0  0  0  0  0  0
    5.7433   -0.1907    5.7731 H   0  0  0  0  0  0  0  0  0  0  0  0
    4.7390    0.3307    4.4153 H   0  0  0  0  0  0  0  0  0  0  0  0
    3.9865   -4.0765    3.5349 H   0  0  0  0  0  0  0  0  0  0  0  0
    4.1393   -3.2657    1.9640 H   0  0  0  0  0  0  0  0  0  0  0  0
    4.8163   -4.8985    2.2246 H   0  0  0  0  0  0  0  0  0  0  0  0
    7.3646    0.7659    0.1593 H   0  0  0  0  0  0  0  0  0  0  0  0
    7.1026    0.8879   -1.5658 H   0  0  0  0  0  0  0  0  0  0  0  0
    5.5164    2.1250    0.0280 H   0  0  0  0  0  0  0  0  0  0  0  0
    5.0556    1.8938   -2.3882 H   0  0  0  0  0  0  0  0  0  0  0  0
    4.2798    0.3071   -2.1222 H   0  0  0  0  0  0  0  0  0  0  0  0
    1.5481    1.7003    0.0215 H   0  0  0  0  0  0  0  0  0  0  0  0
    2.1863    0.2131   -0.6999 H   0  0  0  0  0  0  0  0  0  0  0  0
    3.5748    1.9754    1.4136 H   0  0  0  0  0  0  0  0  0  0  0  0
    2.8511    0.3837    1.6748 H   0  0  0  0  0  0  0  0  0  0  0  0
    9.3640   -1.8642   -3.7271 H   0  0  0  0  0  0  0  0  0  0  0  0
    8.2955   -3.1813   -4.2335 H   0  0  0  0  0  0  0  0  0  0  0  0
    8.3204   -0.2848   -5.2292 H   0  0  0  0  0  0  0  0  0  0  0  0
    8.6686   -1.7260   -6.1852 H   0  0  0  0  0  0  0  0  0  0  0  0
    6.3206   -2.4131   -6.1166 H   0  0  0  0  0  0  0  0  0  0  0  0
    6.3709   -0.7218   -6.5883 H   0  0  0  0  0  0  0  0  0  0  0  0
   -0.2305    4.6822   -2.6116 H   0  0  0  0  0  0  0  0  0  0  0  0
    1.2223    3.6348   -0.9565 H   0  0  0  0  0  0  0  0  0  0  0  0
    3.4029    1.6241   -4.0691 H   0  0  0  0  0  0  0  0  0  0  0  0
  1  2  1  0
  2  3  1  0
  2  5  1  0
  3  4  1  0
  5  6  2  0
  5 10  1  0
  6  7  1  0
  7  8  2  0
  8  9  1  0
  9 10  2  0
 10 11  1  0
 11 12  1  0
 11 15  2  0
 12 13  1  0
 12 68  1  0
 13 14  1  0
 15 16  1  0
 15 67  1  0
 16 17  1  0
 17 18  1  0
 17 19  1  0
 17 20  1  0
 20 21  1  0
 21 22  1  0
 22 23  1  0
 22 66  2  0
 23 24  1  0
 23 65  1  0
 24 25  1  0
 25 26  1  0
 25 63  1  0
 26 27  1  0
 26 62  2  0
 27 28  1  0
 27 55  1  0
 28 29  1  0
 29 30  1  0
 29 54  2  0
 30 31  1  0
 30 34  1  0
 31 32  1  0
 31 33  1  0
 34 35  1  0
 34 53  1  0
 35 36  1  0
 35 52  2  0
 36 37  1  0
 36 51  1  0
 36 73  1  0
 37 38  1  0
 38 39  1  0
 39 40  1  0
 39 50  1  0
 40 41  1  0
 40 49  2  0
 42 43  1  0
 43 44  1  0
 43 47  1  0
 43 48  1  0
 44 45  1  0
 44 46  1  0
 50 51  1  0
 55 56  1  0
 56 57  1  0
 56 61  1  0
 57 58  1  0
 58 59  1  0
 58 71  1  0
 59 60  1  0
 60 61  1  0
 63 64  1  0
 64 65  1  0
 67 68  2  0
 67 72  1  0
 68 69  1  0
 69 70  2  0
 70 71  1  0
 71 72  2  0
  1 74  1  0
  1 75  1  0
  1 76  1  0
  2 77  1  1
  4 78  1  0
  4 79  1  0
  4 80  1  0
  7 81  1  0
  8 82  1  0
  9 83  1  0
 13 84  1  0
 13 85  1  0
 14 86  1  0
 14 87  1  0
 14 88  1  0
 16 89  1  0
 16 90  1  0
 18 91  1  0
 18 92  1  0
 18 93  1  0
 19 94  1  0
 19 95  1  0
 19 96  1  0
 20 97  1  0
 20 98  1  0
 23 99  1  1
 24100  1  0
 27101  1  6
 28102  1  0
 30103  1  1
 31104  1  0
 32105  1  0
 32106  1  0
 32107  1  0
 33108  1  0
 33109  1  0
 33110  1  0
 37111  1  0
 37112  1  0
 38113  1  0
 38114  1  0
 45115  1  0
 45116  1  0
 45117  1  0
 46118  1  0
 46119  1  0
 46120  1  0
 47121  1  0
 47122  1  0
 47123  1  0
 48124  1  0
 48125  1  0
 48126  1  0
 50127  1  0
 50128  1  0
 51129  1  0
 51130  1  0
 53131  1  0
 53132  1  0
 53133  1  0
 55134  1  0
 55135  1  0
 56136  1  1
 57137  1  0
 57138  1  0
 59139  1  0
 59140  1  0
 60141  1  0
 60142  1  0
 63143  1  0
 63144  1  0
 64145  1  0
 64146  1  0
 65147  1  0
 65148  1  0
 69149  1  0
 70150  1  0
 72151  1  0
 41 42  3  0
M  END
$$$$
