mol_ETKDG2_15
     RDKit          3D

151157  0  0  0  0  0  0  0  0999 V2000
    3.1509    7.7965   -8.5093 C   0  0  0  0  0  0  0  0  0  0  0  0
    2.8819    6.3631   -8.0392 C   0  0  2  0  0  0  0  0  0  0  0  0
    4.0571    5.5625   -8.2427 O   0  0  0  0  0  0  0  0  0  0  0  0
    4.9901    5.6688   -7.1765 C   0  0  0  0  0  0  0  0  0  0  0  0
    1.7080    5.7238   -8.7806 C   0  0  0  0  0  0  0  0  0  0  0  0
    1.4459    6.1839  -10.0407 N   0  0  0  0  0  0  0  0  0  0  0  0
    0.4195    5.6350  -10.7211 C   0  0  0  0  0  0  0  0  0  0  0  0
   -0.3969    4.6469  -10.2098 C   0  0  0  0  0  0  0  0  0  0  0  0
   -0.1365    4.1840   -8.9254 C   0  0  0  0  0  0  0  0  0  0  0  0
    0.9366    4.7041   -8.1920 C   0  0  0  0  0  0  0  0  0  0  0  0
    1.1983    4.1768   -6.8463 C   0  0  0  0  0  0  0  0  0  0  0  0
    0.5465    4.6257   -5.7149 N   0  0  0  0  0  0  0  0  0  0  0  0
   -0.5115    5.6280   -5.6844 C   0  0  0  0  0  0  0  0  0  0  0  0
   -1.8960    5.0075   -5.6134 C   0  0  0  0  0  0  0  0  0  0  0  0
    2.1203    3.2091   -6.4446 C   0  0  0  0  0  0  0  0  0  0  0  0
    3.0422    2.4311   -7.3546 C   0  0  0  0  0  0  0  0  0  0  0  0
    2.5918    0.9959   -7.7597 C   0  0  0  0  0  0  0  0  0  0  0  0
    1.1560    0.9623   -8.3053 C   0  0  0  0  0  0  0  0  0  0  0  0
    3.5349    0.5216   -8.8933 C   0  0  0  0  0  0  0  0  0  0  0  0
    2.6977   -0.0028   -6.5867 C   0  0  0  0  0  0  0  0  0  0  0  0
    4.0629   -0.0712   -6.1495 O   0  0  0  0  0  0  0  0  0  0  0  0
    4.3652   -1.1105   -5.3258 C   0  0  0  0  0  0  0  0  0  0  0  0
    5.8581   -1.0867   -5.0122 C   0  0  1  0  0  0  0  0  0  0  0  0
    6.0769   -1.5874   -3.6418 N   0  0  0  0  0  0  0  0  0  0  0  0
    7.4584   -1.6393   -3.3185 N   0  0  0  0  0  0  0  0  0  0  0  0
    7.8816   -1.4325   -1.9975 C   0  0  0  0  0  0  0  0  0  0  0  0
    6.8116   -0.9246   -0.9927 C   0  0  1  0  0  0  0  0  0  0  0  0
    7.1050   -1.5056    0.3170 N   0  0  0  0  0  0  0  0  0  0  0  0
    6.9560   -2.8645    0.5088 C   0  0  0  0  0  0  0  0  0  0  0  0
    7.2355   -3.3228    1.9554 C   0  0  2  0  0  0  0  0  0  0  0  0
    7.8547   -4.7457    1.9983 C   0  0  0  0  0  0  0  0  0  0  0  0
    8.0191   -5.2419    3.4393 C   0  0  0  0  0  0  0  0  0  0  0  0
    9.2307   -4.7561    1.3112 C   0  0  0  0  0  0  0  0  0  0  0  0
    5.9822   -3.1835    2.7438 N   0  0  0  0  0  0  0  0  0  0  0  0
    5.7818   -1.9484    3.3769 C   0  0  0  0  0  0  0  0  0  0  0  0
    4.5735   -1.7898    4.3328 C   0  0  0  0  0  0  0  0  0  0  0  0
    4.7308   -2.7331    5.5399 C   0  0  0  0  0  0  0  0  0  0  0  0
    3.6338   -2.4854    6.5714 C   0  0  0  0  0  0  0  0  0  0  0  0
    3.6361   -1.0818    6.9495 N   0  0  0  0  0  0  0  0  0  0  0  0
    4.2839   -0.7142    8.1257 C   0  0  0  0  0  0  0  0  0  0  0  0
    4.6456    0.6730    8.3123 C   0  0  0  0  0  0  0  0  0  0  0  0
    5.0307    1.8054    8.4321 C   0  0  0  0  0  0  0  0  0  0  0  0
    5.5963    3.1761    8.5440 C   0  0  0  0  0  0  0  0  0  0  0  0
    6.6693    3.3120    7.5242 N   0  0  0  0  0  0  0  0  0  0  0  0
    6.1885    3.3481    6.1401 C   0  0  0  0  0  0  0  0  0  0  0  0
    7.6001    4.4192    7.7443 C   0  0  0  0  0  0  0  0  0  0  0  0
    4.4550    4.1994    8.3797 C   0  0  0  0  0  0  0  0  0  0  0  0
    6.1474    3.3035    9.9851 C   0  0  0  0  0  0  0  0  0  0  0  0
    4.6150   -1.5131    8.9981 O   0  0  0  0  0  0  0  0  0  0  0  0
    3.3760   -0.1662    5.8449 C   0  0  0  0  0  0  0  0  0  0  0  0
    4.4597   -0.3228    4.7880 C   0  0  0  0  0  0  0  0  0  0  0  0
    6.5894   -1.0244    3.2213 O   0  0  0  0  0  0  0  0  0  0  0  0
    4.8396   -3.9982    2.3312 C   0  0  0  0  0  0  0  0  0  0  0  0
    6.5776   -3.6283   -0.3783 O   0  0  0  0  0  0  0  0  0  0  0  0
    6.8719    0.6104   -0.9556 C   0  0  0  0  0  0  0  0  0  0  0  0
    5.5205    1.2874   -0.6854 C   0  0  1  0  0  0  0  0  0  0  0  0
    4.6656    1.4189   -1.9738 C   0  0  0  0  0  0  0  0  0  0  0  0
    3.3886    2.0808   -1.6377 N   0  0  0  0  0  0  0  0  0  0  0  0
    2.6624    1.3467   -0.5758 C   0  0  0  0  0  0  0  0  0  0  0  0
    3.5705    1.2061    0.6580 C   0  0  0  0  0  0  0  0  0  0  0  0
    4.8175    0.5660    0.3451 O   0  0  0  0  0  0  0  0  0  0  0  0
    9.0652   -1.5820   -1.6593 O   0  0  0  0  0  0  0  0  0  0  0  0
    8.3332   -2.3706   -4.2395 C   0  0  0  0  0  0  0  0  0  0  0  0
    8.1041   -1.9612   -5.6922 C   0  0  0  0  0  0  0  0  0  0  0  0
    6.6170   -1.9395   -6.0308 C   0  0  0  0  0  0  0  0  0  0  0  0
    3.5745   -1.9560   -4.9247 O   0  0  0  0  0  0  0  0  0  0  0  0
    2.0992    3.1802   -5.0077 C   0  0  0  0  0  0  0  0  0  0  0  0
    1.0913    4.0446   -4.5867 C   0  0  0  0  0  0  0  0  0  0  0  0
    0.7967    4.2259   -3.2306 C   0  0  0  0  0  0  0  0  0  0  0  0
    1.5699    3.5367   -2.2873 C   0  0  0  0  0  0  0  0  0  0  0  0
    2.6130    2.6712   -2.6403 C   0  0  0  0  0  0  0  0  0  0  0  0
    2.8646    2.5092   -4.0154 C   0  0  0  0  0  0  0  0  0  0  0  0
    3.3935   -2.0940    3.7011 F   0  0  0  0  0  0  0  0  0  0  0  0
    3.9395    8.2628   -7.9118 H   0  0  0  0  0  0  0  0  0  0  0  0
    3.4979    7.8177   -9.5492 H   0  0  0  0  0  0  0  0  0  0  0  0
    2.2522    8.4166   -8.4292 H   0  0  0  0  0  0  0  0  0  0  0  0
    2.6364    6.4123   -6.9716 H   0  0  0  0  0  0  0  0  0  0  0  0
    4.5347    5.3659   -6.2285 H   0  0  0  0  0  0  0  0  0  0  0  0
    5.8267    4.9973   -7.3858 H   0  0  0  0  0  0  0  0  0  0  0  0
    5.3800    6.6870   -7.0979 H   0  0  0  0  0  0  0  0  0  0  0  0
    0.2691    6.0241  -11.7239 H   0  0  0  0  0  0  0  0  0  0  0  0
   -1.2108    4.2395  -10.7979 H   0  0  0  0  0  0  0  0  0  0  0  0
   -0.7619    3.4010   -8.5029 H   0  0  0  0  0  0  0  0  0  0  0  0
   -0.3342    6.2765   -4.8184 H   0  0  0  0  0  0  0  0  0  0  0  0
   -0.4224    6.2649   -6.5691 H   0  0  0  0  0  0  0  0  0  0  0  0
   -2.0156    4.4066   -4.7056 H   0  0  0  0  0  0  0  0  0  0  0  0
   -2.6613    5.7897   -5.6047 H   0  0  0  0  0  0  0  0  0  0  0  0
   -2.0857    4.3546   -6.4707 H   0  0  0  0  0  0  0  0  0  0  0  0
    3.1845    3.0141   -8.2729 H   0  0  0  0  0  0  0  0  0  0  0  0
    4.0364    2.3960   -6.8907 H   0  0  0  0  0  0  0  0  0  0  0  0
    0.4260    1.2730   -7.5506 H   0  0  0  0  0  0  0  0  0  0  0  0
    1.0547    1.6081   -9.1813 H   0  0  0  0  0  0  0  0  0  0  0  0
    0.8788   -0.0509   -8.6210 H   0  0  0  0  0  0  0  0  0  0  0  0
    4.5872    0.5616   -8.5899 H   0  0  0  0  0  0  0  0  0  0  0  0
    3.3099   -0.5093   -9.1898 H   0  0  0  0  0  0  0  0  0  0  0  0
    3.4268    1.1527   -9.7831 H   0  0  0  0  0  0  0  0  0  0  0  0
    2.0623    0.2968   -5.7467 H   0  0  0  0  0  0  0  0  0  0  0  0
    2.3720   -0.9979   -6.9174 H   0  0  0  0  0  0  0  0  0  0  0  0
    6.1983   -0.0433   -5.0505 H   0  0  0  0  0  0  0  0  0  0  0  0
    5.6807   -2.5333   -3.5553 H   0  0  0  0  0  0  0  0  0  0  0  0
    5.8171   -1.2824   -1.2761 H   0  0  0  0  0  0  0  0  0  0  0  0
    6.9850   -0.9230    1.1462 H   0  0  0  0  0  0  0  0  0  0  0  0
    7.9896   -2.6443    2.3771 H   0  0  0  0  0  0  0  0  0  0  0  0
    7.2170   -5.4570    1.4610 H   0  0  0  0  0  0  0  0  0  0  0  0
    7.0498   -5.3550    3.9353 H   0  0  0  0  0  0  0  0  0  0  0  0
    8.5118   -6.2206    3.4589 H   0  0  0  0  0  0  0  0  0  0  0  0
    8.6253   -4.5472    4.0312 H   0  0  0  0  0  0  0  0  0  0  0  0
    9.6781   -5.7553    1.3541 H   0  0  0  0  0  0  0  0  0  0  0  0
    9.1543   -4.4745    0.2573 H   0  0  0  0  0  0  0  0  0  0  0  0
    9.9219   -4.0568    1.7970 H   0  0  0  0  0  0  0  0  0  0  0  0
    4.6888   -3.7831    5.2330 H   0  0  0  0  0  0  0  0  0  0  0  0
    5.7146   -2.5765    6.0020 H   0  0  0  0  0  0  0  0  0  0  0  0
    2.6484   -2.7253    6.1570 H   0  0  0  0  0  0  0  0  0  0  0  0
    3.7888   -3.1293    7.4445 H   0  0  0  0  0  0  0  0  0  0  0  0
    5.4987    2.5274    5.9211 H   0  0  0  0  0  0  0  0  0  0  0  0
    5.6883    4.2917    5.8984 H   0  0  0  0  0  0  0  0  0  0  0  0
    7.0288    3.2277    5.4467 H   0  0  0  0  0  0  0  0  0  0  0  0
    8.1617    4.2918    8.6765 H   0  0  0  0  0  0  0  0  0  0  0  0
    8.3597    4.4479    6.9528 H   0  0  0  0  0  0  0  0  0  0  0  0
    7.0955    5.3916    7.7623 H   0  0  0  0  0  0  0  0  0  0  0  0
    3.7086    4.0861    9.1762 H   0  0  0  0  0  0  0  0  0  0  0  0
    4.8264    5.2287    8.4262 H   0  0  0  0  0  0  0  0  0  0  0  0
    3.9173    4.0731    7.4333 H   0  0  0  0  0  0  0  0  0  0  0  0
    5.3773    3.0510   10.7269 H   0  0  0  0  0  0  0  0  0  0  0  0
    6.9883    2.6192   10.1567 H   0  0  0  0  0  0  0  0  0  0  0  0
    6.4819    4.3235   10.2092 H   0  0  0  0  0  0  0  0  0  0  0  0
    2.3927   -0.4174    5.4288 H   0  0  0  0  0  0  0  0  0  0  0  0
    3.3217    0.8704    6.1886 H   0  0  0  0  0  0  0  0  0  0  0  0
    5.4173    0.0234    5.1979 H   0  0  0  0  0  0  0  0  0  0  0  0
    4.2201    0.3168    3.9305 H   0  0  0  0  0  0  0  0  0  0  0  0
    4.1204   -4.1170    3.1410 H   0  0  0  0  0  0  0  0  0  0  0  0
    4.3407   -3.5064    1.4914 H   0  0  0  0  0  0  0  0  0  0  0  0
    5.1633   -4.9974    2.0355 H   0  0  0  0  0  0  0  0  0  0  0  0
    7.5660    0.9166   -0.1610 H   0  0  0  0  0  0  0  0  0  0  0  0
    7.2876    1.0157   -1.8860 H   0  0  0  0  0  0  0  0  0  0  0  0
    5.7250    2.2987   -0.3046 H   0  0  0  0  0  0  0  0  0  0  0  0
    5.2327    2.0111   -2.7019 H   0  0  0  0  0  0  0  0  0  0  0  0
    4.4558    0.4318   -2.3985 H   0  0  0  0  0  0  0  0  0  0  0  0
    1.7395    1.8435   -0.2642 H   0  0  0  0  0  0  0  0  0  0  0  0
    2.3967    0.3515   -0.9535 H   0  0  0  0  0  0  0  0  0  0  0  0
    3.7798    2.1876    1.1013 H   0  0  0  0  0  0  0  0  0  0  0  0
    3.0704    0.5967    1.4193 H   0  0  0  0  0  0  0  0  0  0  0  0
    9.3838   -2.2100   -3.9719 H   0  0  0  0  0  0  0  0  0  0  0  0
    8.1244   -3.4402   -4.1047 H   0  0  0  0  0  0  0  0  0  0  0  0
    8.5204   -0.9590   -5.8542 H   0  0  0  0  0  0  0  0  0  0  0  0
    8.6374   -2.6453   -6.3621 H   0  0  0  0  0  0  0  0  0  0  0  0
    6.2254   -2.9674   -6.0412 H   0  0  0  0  0  0  0  0  0  0  0  0
    6.4727   -1.5448   -7.0433 H   0  0  0  0  0  0  0  0  0  0  0  0
    0.0141    4.8997   -2.8998 H   0  0  0  0  0  0  0  0  0  0  0  0
    1.3660    3.7384   -1.2380 H   0  0  0  0  0  0  0  0  0  0  0  0
    3.6619    1.8591   -4.3533 H   0  0  0  0  0  0  0  0  0  0  0  0
  1  2  1  0
  2  3  1  0
  2  5  1  0
  3  4  1  0
  5  6  2  0
  5 10  1  0
  6  7  1  0
  7  8  2  0
  8  9  1  0
  9 10  2  0
 10 11  1  0
 11 12  1  0
 11 15  2  0
 12 13  1  0
 12 68  1  0
 13 14  1  0
 15 16  1  0
 15 67  1  0
 16 17  1  0
 17 18  1  0
 17 19  1  0
 17 20  1  0
 20 21  1  0
 21 22  1  0
 22 23  1  0
 22 66  2  0
 23 24  1  0
 23 65  1  0
 24 25  1  0
 25 26  1  0
 25 63  1  0
 26 27  1  0
 26 62  2  0
 27 28  1  0
 27 55  1  0
 28 29  1  0
 29 30  1  0
 29 54  2  0
 30 31  1  0
 30 34  1  0
 31 32  1  0
 31 33  1  0
 34 35  1  0
 34 53  1  0
 35 36  1  0
 35 52  2  0
 36 37  1  0
 36 51  1  0
 36 73  1  0
 37 38  1  0
 38 39  1  0
 39 40  1  0
 39 50  1  0
 40 41  1  0
 40 49  2  0
 42 43  1  0
 43 44  1  0
 43 47  1  0
 43 48  1  0
 44 45  1  0
 44 46  1  0
 50 51  1  0
 55 56  1  0
 56 57  1  0
 56 61  1  0
 57 58  1  0
 58 59  1  0
 58 71  1  0
 59 60  1  0
 60 61  1  0
 63 64  1  0
 64 65  1  0
 67 68  2  0
 67 72  1  0
 68 69  1  0
 69 70  2  0
 70 71  1  0
 71 72  2  0
  1 74  1  0
  1 75  1  0
  1 76  1  0
  2 77  1  1
  4 78  1  0
  4 79  1  0
  4 80  1  0
  7 81  1  0
  8 82  1  0
  9 83  1  0
 13 84  1  0
 13 85  1  0
 14 86  1  0
 14 87  1  0
 14 88  1  0
 16 89  1  0
 16 90  1  0
 18 91  1  0
 18 92  1  0
 18 93  1  0
 19 94  1  0
 19 95  1  0
 19 96  1  0
 20 97  1  0
 20 98  1  0
 23 99  1  1
 24100  1  0
 27101  1  6
 28102  1  0
 30103  1  1
 31104  1  0
 32105  1  0
 32106  1  0
 32107  1  0
 33108  1  0
 33109  1  0
 33110  1  0
 37111  1  0
 37112  1  0
 38113  1  0
 38114  1  0
 45115  1  0
 45116  1  0
 45117  1  0
 46118  1  0
 46119  1  0
 46120  1  0
 47121  1  0
 47122  1  0
 47123  1  0
 48124  1  0
 48125  1  0
 48126  1  0
 50127  1  0
 50128  1  0
 51129  1  0
 51130  1  0
 53131  1  0
 53132  1  0
 53133  1  0
 55134  1  0
 55135  1  0
 56136  1  1
 57137  1  0
 57138  1  0
 59139  1  0
 59140  1  0
 60141  1  0
 60142  1  0
 63143  1  0
 63144  1  0
 64145  1  0
 64146  1  0
 65147  1  0
 65148  1  0
 69149  1  0
 70150  1  0
 72151  1  0
 41 42  3  0
M  END
$$$$
