mol_bioactive_5
     RDKit          3D

151157  0  0  0  0  0  0  0  0999 V2000
    2.5787    7.5397   -8.0738 C   0  0  0  0  0  0  0  0  0  0  0  0
    2.3954    6.0575   -7.7339 C   0  0  2  0  0  0  0  0  0  0  0  0
    3.6044    5.3419   -8.0318 O   0  0  0  0  0  0  0  0  0  0  0  0
    4.5465    5.3853   -6.9696 C   0  0  0  0  0  0  0  0  0  0  0  0
    1.2381    5.4276   -8.5088 C   0  0  0  0  0  0  0  0  0  0  0  0
    0.9681    5.9461   -9.7436 N   0  0  0  0  0  0  0  0  0  0  0  0
   -0.0355    5.4010  -10.4607 C   0  0  0  0  0  0  0  0  0  0  0  0
   -0.8190    4.3575  -10.0106 C   0  0  0  0  0  0  0  0  0  0  0  0
   -0.5493    3.8342   -8.7515 C   0  0  0  0  0  0  0  0  0  0  0  0
    0.4944    4.3566   -7.9786 C   0  0  0  0  0  0  0  0  0  0  0  0
    0.7638    3.7753   -6.6574 C   0  0  0  0  0  0  0  0  0  0  0  0
    0.0662    4.1211   -5.5176 N   0  0  0  0  0  0  0  0  0  0  0  0
   -1.0968    4.9984   -5.4627 C   0  0  0  0  0  0  0  0  0  0  0  0
   -0.7279    6.4575   -5.2628 C   0  0  0  0  0  0  0  0  0  0  0  0
    1.7446    2.8538   -6.2869 C   0  0  0  0  0  0  0  0  0  0  0  0
    2.7159    2.1744   -7.2253 C   0  0  0  0  0  0  0  0  0  0  0  0
    2.3574    0.7327   -7.6943 C   0  0  0  0  0  0  0  0  0  0  0  0
    0.9104    0.6180   -8.1999 C   0  0  0  0  0  0  0  0  0  0  0  0
    3.2949    0.3836   -8.8761 C   0  0  0  0  0  0  0  0  0  0  0  0
    2.5696   -0.3025   -6.5704 C   0  0  0  0  0  0  0  0  0  0  0  0
    3.9519   -0.3019   -6.1821 O   0  0  0  0  0  0  0  0  0  0  0  0
    4.2609   -1.1144   -5.1352 C   0  0  0  0  0  0  0  0  0  0  0  0
    5.7409   -0.9606   -4.7795 C   0  0  1  0  0  0  0  0  0  0  0  0
    6.0974   -1.9386   -3.7404 N   0  0  0  0  0  0  0  0  0  0  0  0
    7.4144   -1.7307   -3.2857 N   0  0  0  0  0  0  0  0  0  0  0  0
    7.7835   -1.5287   -1.9528 C   0  0  0  0  0  0  0  0  0  0  0  0
    6.6732   -1.1721   -0.9293 C   0  0  1  0  0  0  0  0  0  0  0  0
    7.0046   -1.7669    0.3625 N   0  0  0  0  0  0  0  0  0  0  0  0
    6.8929   -3.1319    0.5403 C   0  0  0  0  0  0  0  0  0  0  0  0
    7.1265   -3.5861    1.9989 C   0  0  2  0  0  0  0  0  0  0  0  0
    7.6740   -5.0372    2.0794 C   0  0  0  0  0  0  0  0  0  0  0  0
    7.7436   -5.5296    3.5313 C   0  0  0  0  0  0  0  0  0  0  0  0
    9.0786   -5.1188    1.4636 C   0  0  0  0  0  0  0  0  0  0  0  0
    5.8639   -3.3767    2.7568 N   0  0  0  0  0  0  0  0  0  0  0  0
    5.7023   -2.1250    3.3676 C   0  0  0  0  0  0  0  0  0  0  0  0
    4.4760   -1.9010    4.2850 C   0  0  0  0  0  0  0  0  0  0  0  0
    4.5833   -2.8127    5.5219 C   0  0  0  0  0  0  0  0  0  0  0  0
    3.4726   -2.5030    6.5200 C   0  0  0  0  0  0  0  0  0  0  0  0
    3.5144   -1.0907    6.8600 N   0  0  0  0  0  0  0  0  0  0  0  0
    4.1192   -0.7144    8.0556 C   0  0  0  0  0  0  0  0  0  0  0  0
    4.4443    0.6805    8.2622 C   0  0  0  0  0  0  0  0  0  0  0  0
    4.7693    1.8241    8.4399 C   0  0  0  0  0  0  0  0  0  0  0  0
    5.1996    3.2262    8.6698 C   0  0  0  0  0  0  0  0  0  0  0  0
    6.6570    3.3313    8.9684 N   0  0  0  0  0  0  0  0  0  0  0  0
    7.5298    2.8394    7.8963 C   0  0  0  0  0  0  0  0  0  0  0  0
    7.0521    2.7112   10.2382 C   0  0  0  0  0  0  0  0  0  0  0  0
    4.8526    4.0562    7.4133 C   0  0  0  0  0  0  0  0  0  0  0  0
    4.3573    3.8102    9.8273 C   0  0  0  0  0  0  0  0  0  0  0  0
    4.4274   -1.5061    8.9385 O   0  0  0  0  0  0  0  0  0  0  0  0
    3.3029   -0.1945    5.7302 C   0  0  0  0  0  0  0  0  0  0  0  0
    4.3978   -0.4171    4.6960 C   0  0  0  0  0  0  0  0  0  0  0  0
    6.5548   -1.2400    3.2228 O   0  0  0  0  0  0  0  0  0  0  0  0
    4.6949   -4.1442    2.3273 C   0  0  0  0  0  0  0  0  0  0  0  0
    6.5589   -3.8978   -0.3613 O   0  0  0  0  0  0  0  0  0  0  0  0
    6.6027    0.3633   -0.8282 C   0  0  0  0  0  0  0  0  0  0  0  0
    5.1997    0.9214   -0.5450 C   0  0  1  0  0  0  0  0  0  0  0  0
    4.3684    1.0776   -1.8452 C   0  0  0  0  0  0  0  0  0  0  0  0
    3.0436    1.6226   -1.5077 N   0  0  0  0  0  0  0  0  0  0  0  0
    2.3427    0.7732   -0.5172 C   0  0  0  0  0  0  0  0  0  0  0  0
    3.2295    0.6119    0.7314 C   0  0  0  0  0  0  0  0  0  0  0  0
    4.5264    0.0801    0.4099 O   0  0  0  0  0  0  0  0  0  0  0  0
    8.9743   -1.5167   -1.6103 O   0  0  0  0  0  0  0  0  0  0  0  0
    8.4288   -1.9854   -4.3148 C   0  0  0  0  0  0  0  0  0  0  0  0
    8.1454   -1.1264   -5.5526 C   0  0  0  0  0  0  0  0  0  0  0  0
    6.6725   -1.1975   -5.9776 C   0  0  0  0  0  0  0  0  0  0  0  0
    3.4513   -1.7796   -4.5048 O   0  0  0  0  0  0  0  0  0  0  0  0
    1.7179    2.7682   -4.8516 C   0  0  0  0  0  0  0  0  0  0  0  0
    0.6502    3.5456   -4.4071 C   0  0  0  0  0  0  0  0  0  0  0  0
    0.3404    3.6638   -3.0468 C   0  0  0  0  0  0  0  0  0  0  0  0
    1.1499    2.9910   -2.1234 C   0  0  0  0  0  0  0  0  0  0  0  0
    2.2475    2.2066   -2.4987 C   0  0  0  0  0  0  0  0  0  0  0  0
    2.5203    2.1151   -3.8766 C   0  0  0  0  0  0  0  0  0  0  0  0
    3.3003   -2.1912    3.6380 F   0  0  0  0  0  0  0  0  0  0  0  0
    3.3750    7.9836   -7.4692 H   0  0  0  0  0  0  0  0  0  0  0  0
    2.8735    7.6804   -9.1204 H   0  0  0  0  0  0  0  0  0  0  0  0
    1.6593    8.1041   -7.8905 H   0  0  0  0  0  0  0  0  0  0  0  0
    2.1779    5.9981   -6.6612 H   0  0  0  0  0  0  0  0  0  0  0  0
    4.1119    4.9918   -6.0446 H   0  0  0  0  0  0  0  0  0  0  0  0
    5.3997    4.7569   -7.2410 H   0  0  0  0  0  0  0  0  0  0  0  0
    4.9070    6.4055   -6.8100 H   0  0  0  0  0  0  0  0  0  0  0  0
   -0.1981    5.8437  -11.4396 H   0  0  0  0  0  0  0  0  0  0  0  0
   -1.6149    3.9551  -10.6265 H   0  0  0  0  0  0  0  0  0  0  0  0
   -1.1480    3.0068   -8.3763 H   0  0  0  0  0  0  0  0  0  0  0  0
   -1.6768    4.8682   -6.3802 H   0  0  0  0  0  0  0  0  0  0  0  0
   -1.7386    4.6534   -4.6455 H   0  0  0  0  0  0  0  0  0  0  0  0
   -0.1396    6.5988   -4.3495 H   0  0  0  0  0  0  0  0  0  0  0  0
   -0.1377    6.8398   -6.1006 H   0  0  0  0  0  0  0  0  0  0  0  0
   -1.6327    7.0698   -5.1842 H   0  0  0  0  0  0  0  0  0  0  0  0
    2.8205    2.8042   -8.1187 H   0  0  0  0  0  0  0  0  0  0  0  0
    3.7105    2.1828   -6.7607 H   0  0  0  0  0  0  0  0  0  0  0  0
    0.1822    0.8380   -7.4133 H   0  0  0  0  0  0  0  0  0  0  0  0
    0.7318    1.2962   -9.0393 H   0  0  0  0  0  0  0  0  0  0  0  0
    0.7003   -0.3963   -8.5577 H   0  0  0  0  0  0  0  0  0  0  0  0
    4.3484    0.5024   -8.6037 H   0  0  0  0  0  0  0  0  0  0  0  0
    3.1483   -0.6508   -9.2033 H   0  0  0  0  0  0  0  0  0  0  0  0
    3.1017    1.0331   -9.7370 H   0  0  0  0  0  0  0  0  0  0  0  0
    1.9328   -0.0789   -5.7076 H   0  0  0  0  0  0  0  0  0  0  0  0
    2.3159   -1.3079   -6.9314 H   0  0  0  0  0  0  0  0  0  0  0  0
    5.8666    0.0558   -4.3854 H   0  0  0  0  0  0  0  0  0  0  0  0
    5.3816   -2.0298   -3.0201 H   0  0  0  0  0  0  0  0  0  0  0  0
    5.7122   -1.5922   -1.2251 H   0  0  0  0  0  0  0  0  0  0  0  0
    6.8816   -1.2050    1.2021 H   0  0  0  0  0  0  0  0  0  0  0  0
    7.9028   -2.9343    2.4252 H   0  0  0  0  0  0  0  0  0  0  0  0
    7.0292   -5.7208    1.5156 H   0  0  0  0  0  0  0  0  0  0  0  0
    6.7463   -5.6008    3.9778 H   0  0  0  0  0  0  0  0  0  0  0  0
    8.1950   -6.5268    3.5818 H   0  0  0  0  0  0  0  0  0  0  0  0
    8.3455   -4.8540    4.1497 H   0  0  0  0  0  0  0  0  0  0  0  0
    9.4634   -6.1438    1.5123 H   0  0  0  0  0  0  0  0  0  0  0  0
    9.0722   -4.8176    0.4111 H   0  0  0  0  0  0  0  0  0  0  0  0
    9.7825   -4.4699    1.9974 H   0  0  0  0  0  0  0  0  0  0  0  0
    4.5139   -3.8678    5.2408 H   0  0  0  0  0  0  0  0  0  0  0  0
    5.5622   -2.6730    5.9994 H   0  0  0  0  0  0  0  0  0  0  0  0
    2.4895   -2.7245    6.0888 H   0  0  0  0  0  0  0  0  0  0  0  0
    3.5891   -3.1303    7.4109 H   0  0  0  0  0  0  0  0  0  0  0  0
    8.5837    2.9857    8.1647 H   0  0  0  0  0  0  0  0  0  0  0  0
    7.3872    1.7737    7.6868 H   0  0  0  0  0  0  0  0  0  0  0  0
    7.3897    3.4029    6.9706 H   0  0  0  0  0  0  0  0  0  0  0  0
    6.5881    3.2166   11.0909 H   0  0  0  0  0  0  0  0  0  0  0  0
    6.8103    1.6431   10.2824 H   0  0  0  0  0  0  0  0  0  0  0  0
    8.1324    2.8157   10.3983 H   0  0  0  0  0  0  0  0  0  0  0  0
    5.2037    5.0915    7.5087 H   0  0  0  0  0  0  0  0  0  0  0  0
    5.2827    3.6332    6.4977 H   0  0  0  0  0  0  0  0  0  0  0  0
    3.7684    4.0931    7.2475 H   0  0  0  0  0  0  0  0  0  0  0  0
    4.4126    3.1984   10.7353 H   0  0  0  0  0  0  0  0  0  0  0  0
    4.6767    4.8292   10.0779 H   0  0  0  0  0  0  0  0  0  0  0  0
    3.2934    3.8559    9.5589 H   0  0  0  0  0  0  0  0  0  0  0  0
    2.3166   -0.4214    5.3031 H   0  0  0  0  0  0  0  0  0  0  0  0
    3.2831    0.8524    6.0471 H   0  0  0  0  0  0  0  0  0  0  0  0
    5.3573   -0.0863    5.1150 H   0  0  0  0  0  0  0  0  0  0  0  0
    4.1924    0.2031    3.8161 H   0  0  0  0  0  0  0  0  0  0  0  0
    3.9873   -4.2742    3.1461 H   0  0  0  0  0  0  0  0  0  0  0  0
    4.1988   -3.6055    1.5130 H   0  0  0  0  0  0  0  0  0  0  0  0
    4.9849   -5.1409    1.9863 H   0  0  0  0  0  0  0  0  0  0  0  0
    7.2639    0.6897   -0.0135 H   0  0  0  0  0  0  0  0  0  0  0  0
    6.9950    0.8420   -1.7344 H   0  0  0  0  0  0  0  0  0  0  0  0
    5.3211    1.9150   -0.0921 H   0  0  0  0  0  0  0  0  0  0  0  0
    4.9070    1.7513   -2.5214 H   0  0  0  0  0  0  0  0  0  0  0  0
    4.2426    0.1045   -2.3320 H   0  0  0  0  0  0  0  0  0  0  0  0
    1.3815    1.1878   -0.1993 H   0  0  0  0  0  0  0  0  0  0  0  0
    2.1553   -0.2112   -0.9632 H   0  0  0  0  0  0  0  0  0  0  0  0
    3.3618    1.5734    1.2430 H   0  0  0  0  0  0  0  0  0  0  0  0
    2.7561   -0.0798    1.4360 H   0  0  0  0  0  0  0  0  0  0  0  0
    9.4347   -1.7736   -3.9381 H   0  0  0  0  0  0  0  0  0  0  0  0
    8.3867   -3.0533   -4.5671 H   0  0  0  0  0  0  0  0  0  0  0  0
    8.3890   -0.0827   -5.3194 H   0  0  0  0  0  0  0  0  0  0  0  0
    8.7945   -1.4321   -6.3805 H   0  0  0  0  0  0  0  0  0  0  0  0
    6.4667   -2.1800   -6.4247 H   0  0  0  0  0  0  0  0  0  0  0  0
    6.4887   -0.4543   -6.7619 H   0  0  0  0  0  0  0  0  0  0  0  0
   -0.4828    4.2777   -2.6966 H   0  0  0  0  0  0  0  0  0  0  0  0
    0.9271    3.1387   -1.0682 H   0  0  0  0  0  0  0  0  0  0  0  0
    3.3614    1.5352   -4.2305 H   0  0  0  0  0  0  0  0  0  0  0  0
  1  2  1  0
  2  3  1  0
  2  5  1  0
  3  4  1  0
  5  6  2  0
  5 10  1  0
  6  7  1  0
  7  8  2  0
  8  9  1  0
  9 10  2  0
 10 11  1  0
 11 12  1  0
 11 15  2  0
 12 13  1  0
 12 68  1  0
 13 14  1  0
 15 16  1  0
 15 67  1  0
 16 17  1  0
 17 18  1  0
 17 19  1  0
 17 20  1  0
 20 21  1  0
 21 22  1  0
 22 23  1  0
 22 66  2  0
 23 24  1  0
 23 65  1  0
 24 25  1  0
 25 26  1  0
 25 63  1  0
 26 27  1  0
 26 62  2  0
 27 28  1  0
 27 55  1  0
 28 29  1  0
 29 30  1  0
 29 54  2  0
 30 31  1  0
 30 34  1  0
 31 32  1  0
 31 33  1  0
 34 35  1  0
 34 53  1  0
 35 36  1  0
 35 52  2  0
 36 37  1  0
 36 51  1  0
 36 73  1  0
 37 38  1  0
 38 39  1  0
 39 40  1  0
 39 50  1  0
 40 41  1  0
 40 49  2  0
 42 43  1  0
 43 44  1  0
 43 47  1  0
 43 48  1  0
 44 45  1  0
 44 46  1  0
 50 51  1  0
 55 56  1  0
 56 57  1  0
 56 61  1  0
 57 58  1  0
 58 59  1  0
 58 71  1  0
 59 60  1  0
 60 61  1  0
 63 64  1  0
 64 65  1  0
 67 68  2  0
 67 72  1  0
 68 69  1  0
 69 70  2  0
 70 71  1  0
 71 72  2  0
  1 74  1  0
  1 75  1  0
  1 76  1  0
  2 77  1  1
  4 78  1  0
  4 79  1  0
  4 80  1  0
  7 81  1  0
  8 82  1  0
  9 83  1  0
 13 84  1  0
 13 85  1  0
 14 86  1  0
 14 87  1  0
 14 88  1  0
 16 89  1  0
 16 90  1  0
 18 91  1  0
 18 92  1  0
 18 93  1  0
 19 94  1  0
 19 95  1  0
 19 96  1  0
 20 97  1  0
 20 98  1  0
 23 99  1  1
 24100  1  0
 27101  1  6
 28102  1  0
 30103  1  1
 31104  1  0
 32105  1  0
 32106  1  0
 32107  1  0
 33108  1  0
 33109  1  0
 33110  1  0
 37111  1  0
 37112  1  0
 38113  1  0
 38114  1  0
 45115  1  0
 45116  1  0
 45117  1  0
 46118  1  0
 46119  1  0
 46120  1  0
 47121  1  0
 47122  1  0
 47123  1  0
 48124  1  0
 48125  1  0
 48126  1  0
 50127  1  0
 50128  1  0
 51129  1  0
 51130  1  0
 53131  1  0
 53132  1  0
 53133  1  0
 55134  1  0
 55135  1  0
 56136  1  1
 57137  1  0
 57138  1  0
 59139  1  0
 59140  1  0
 60141  1  0
 60142  1  0
 63143  1  0
 63144  1  0
 64145  1  0
 64146  1  0
 65147  1  0
 65148  1  0
 69149  1  0
 70150  1  0
 72151  1  0
 41 42  3  0
M  END
$$$$
