 energy: -221.289949056309 gnorm: 0.000298742664 xtb: 6.7.1 (edcfbbe)
          08232516563D

151157  0     0  0            999 V2000
    3.7186   -2.6769   -2.1747 C   0  0  0  0  0  0  0  0  0  0  0  0
    2.8106   -3.6538   -1.4232 C   0  0  0  0  0  0  0  0  0  0  0  0
    1.7497   -2.9370   -0.8165 O   0  0  0  0  0  0  0  0  0  0  0  0
    0.5426   -3.6540   -0.7814 C   0  0  0  0  0  0  0  0  0  0  0  0
    3.6434   -4.4723   -0.4533 C   0  0  0  0  0  0  0  0  0  0  0  0
    3.9423   -5.6789   -0.9187 N   0  0  0  0  0  0  0  0  0  0  0  0
    4.7581   -6.4631   -0.2408 C   0  0  0  0  0  0  0  0  0  0  0  0
    5.3536   -6.0765    0.9483 C   0  0  0  0  0  0  0  0  0  0  0  0
    5.0288   -4.8309    1.4533 C   0  0  0  0  0  0  0  0  0  0  0  0
    4.1388   -4.0020    0.7706 C   0  0  0  0  0  0  0  0  0  0  0  0
    3.7832   -2.7038    1.3679 C   0  0  0  0  0  0  0  0  0  0  0  0
    4.6229   -1.6206    1.2406 N   0  0  0  0  0  0  0  0  0  0  0  0
    5.8982   -1.5877    0.5727 C   0  0  0  0  0  0  0  0  0  0  0  0
    7.0578   -1.6424    1.5674 C   0  0  0  0  0  0  0  0  0  0  0  0
    2.6937   -2.3734    2.1416 C   0  0  0  0  0  0  0  0  0  0  0  0
    1.5323   -3.2340    2.5274 C   0  0  0  0  0  0  0  0  0  0  0  0
    1.6191   -3.9312    3.9061 C   0  0  0  0  0  0  0  0  0  0  0  0
    2.9039   -4.7555    3.9996 C   0  0  0  0  0  0  0  0  0  0  0  0
    0.4106   -4.8588    4.0562 C   0  0  0  0  0  0  0  0  0  0  0  0
    1.6562   -2.9212    5.0691 C   0  0  0  0  0  0  0  0  0  0  0  0
    0.3790   -2.3990    5.4623 O   0  0  0  0  0  0  0  0  0  0  0  0
   -0.1815   -2.9435    6.5402 C   0  0  0  0  0  0  0  0  0  0  0  0
   -1.4187   -2.1745    6.9892 C   0  0  0  0  0  0  0  0  0  0  0  0
   -2.3842   -1.9408    5.9249 N   0  0  0  0  0  0  0  0  0  0  0  0
   -3.3513   -1.0300    6.3691 N   0  0  0  0  0  0  0  0  0  0  0  0
   -3.2513    0.3190    6.3272 C   0  0  0  0  0  0  0  0  0  0  0  0
   -2.0566    0.8819    5.5345 C   0  0  0  0  0  0  0  0  0  0  0  0
   -2.5161    1.3398    4.2383 N   0  0  0  0  0  0  0  0  0  0  0  0
   -2.5659    0.5116    3.1862 C   0  0  0  0  0  0  0  0  0  0  0  0
   -3.0567    1.1523    1.8862 C   0  0  0  0  0  0  0  0  0  0  0  0
   -4.5237    0.7852    1.6046 C   0  0  0  0  0  0  0  0  0  0  0  0
   -5.0169    1.5337    0.3679 C   0  0  0  0  0  0  0  0  0  0  0  0
   -5.3919    1.1393    2.8112 C   0  0  0  0  0  0  0  0  0  0  0  0
   -2.1465    0.7817    0.8031 N   0  0  0  0  0  0  0  0  0  0  0  0
   -1.1895    1.6778    0.5076 C   0  0  0  0  0  0  0  0  0  0  0  0
   -0.1582    1.3731   -0.5920 C   0  0  0  0  0  0  0  0  0  0  0  0
    0.4396    2.6892   -1.1013 C   0  0  0  0  0  0  0  0  0  0  0  0
    1.5656    2.4228   -2.0999 C   0  0  0  0  0  0  0  0  0  0  0  0
    2.5611    1.5491   -1.5329 N   0  0  0  0  0  0  0  0  0  0  0  0
    3.8570    1.8712   -1.3307 C   0  0  0  0  0  0  0  0  0  0  0  0
    4.1876    3.2538   -1.5815 C   0  0  0  0  0  0  0  0  0  0  0  0
    4.5941    4.3823   -1.6764 C   0  0  0  0  0  0  0  0  0  0  0  0
    4.9712    5.7916   -1.7594 C   0  0  0  0  0  0  0  0  0  0  0  0
    5.8698    5.9582   -2.9055 N   0  0  0  0  0  0  0  0  0  0  0  0
    7.0266    5.0866   -2.8825 C   0  0  0  0  0  0  0  0  0  0  0  0
    6.2668    7.3187   -3.1911 C   0  0  0  0  0  0  0  0  0  0  0  0
    5.5855    6.1820   -0.3979 C   0  0  0  0  0  0  0  0  0  0  0  0
    3.6718    6.5838   -1.9855 C   0  0  0  0  0  0  0  0  0  0  0  0
    4.6976    1.0724   -0.9487 O   0  0  0  0  0  0  0  0  0  0  0  0
    2.0448    0.2752   -1.0984 C   0  0  0  0  0  0  0  0  0  0  0  0
    0.9618    0.4845   -0.0429 C   0  0  0  0  0  0  0  0  0  0  0  0
   -1.0930    2.7393    1.1105 O   0  0  0  0  0  0  0  0  0  0  0  0
   -2.2718   -0.5575    0.2702 C   0  0  0  0  0  0  0  0  0  0  0  0
   -2.2343   -0.6631    3.2632 O   0  0  0  0  0  0  0  0  0  0  0  0
   -1.3855    2.0140    6.3101 C   0  0  0  0  0  0  0  0  0  0  0  0
   -0.1685    2.6190    5.5911 C   0  0  0  0  0  0  0  0  0  0  0  0
    0.5675    1.5867    4.7349 C   0  0  0  0  0  0  0  0  0  0  0  0
    1.7013    2.1700    4.0456 N   0  0  0  0  0  0  0  0  0  0  0  0
    1.2565    3.3192    3.2623 C   0  0  0  0  0  0  0  0  0  0  0  0
    0.5048    4.3021    4.1585 C   0  0  0  0  0  0  0  0  0  0  0  0
   -0.6030    3.6961    4.7844 O   0  0  0  0  0  0  0  0  0  0  0  0
   -4.0904    1.0504    6.8191 O   0  0  0  0  0  0  0  0  0  0  0  0
   -4.2187   -1.6673    7.3430 C   0  0  0  0  0  0  0  0  0  0  0  0
   -3.3713   -2.0764    8.5523 C   0  0  0  0  0  0  0  0  0  0  0  0
   -2.1739   -2.9133    8.0998 C   0  0  0  0  0  0  0  0  0  0  0  0
    0.2745   -3.8694    7.1578 O   0  0  0  0  0  0  0  0  0  0  0  0
    2.8524   -0.9959    2.4741 C   0  0  0  0  0  0  0  0  0  0  0  0
    4.0678   -0.5618    1.9037 C   0  0  0  0  0  0  0  0  0  0  0  0
    4.4918    0.7547    2.0546 C   0  0  0  0  0  0  0  0  0  0  0  0
    3.6873    1.6199    2.7598 C   0  0  0  0  0  0  0  0  0  0  0  0
    2.4573    1.2172    3.3154 C   0  0  0  0  0  0  0  0  0  0  0  0
    2.0433   -0.0959    3.1673 C   0  0  0  0  0  0  0  0  0  0  0  0
   -0.7738    0.7464   -1.6761 F   0  0  0  0  0  0  0  0  0  0  0  0
    4.1044   -1.9181   -1.5030 H   0  0  0  0  0  0  0  0  0  0  0  0
    4.5469   -3.2218   -2.6200 H   0  0  0  0  0  0  0  0  0  0  0  0
    3.1540   -2.1868   -2.9631 H   0  0  0  0  0  0  0  0  0  0  0  0
    2.4025   -4.3686   -2.1535 H   0  0  0  0  0  0  0  0  0  0  0  0
   -0.1553   -3.0684   -0.1861 H   0  0  0  0  0  0  0  0  0  0  0  0
    0.1343   -3.7898   -1.7914 H   0  0  0  0  0  0  0  0  0  0  0  0
    0.6657   -4.6414   -0.3227 H   0  0  0  0  0  0  0  0  0  0  0  0
    4.9452   -7.4338   -0.6811 H   0  0  0  0  0  0  0  0  0  0  0  0
    6.0410   -6.7276    1.4652 H   0  0  0  0  0  0  0  0  0  0  0  0
    5.4617   -4.4910    2.3830 H   0  0  0  0  0  0  0  0  0  0  0  0
    5.9593   -2.4417   -0.1070 H   0  0  0  0  0  0  0  0  0  0  0  0
    5.9507   -0.6648   -0.0122 H   0  0  0  0  0  0  0  0  0  0  0  0
    6.9885   -0.8200    2.2747 H   0  0  0  0  0  0  0  0  0  0  0  0
    7.0441   -2.5775    2.1232 H   0  0  0  0  0  0  0  0  0  0  0  0
    8.0031   -1.5689    1.0366 H   0  0  0  0  0  0  0  0  0  0  0  0
    0.6267   -2.6228    2.5158 H   0  0  0  0  0  0  0  0  0  0  0  0
    1.4214   -4.0204    1.7805 H   0  0  0  0  0  0  0  0  0  0  0  0
    2.9086   -5.3512    4.9097 H   0  0  0  0  0  0  0  0  0  0  0  0
    2.9845   -5.4266    3.1481 H   0  0  0  0  0  0  0  0  0  0  0  0
    3.7697   -4.0983    4.0106 H   0  0  0  0  0  0  0  0  0  0  0  0
    0.4066   -5.3228    5.0398 H   0  0  0  0  0  0  0  0  0  0  0  0
   -0.5187   -4.3064    3.9304 H   0  0  0  0  0  0  0  0  0  0  0  0
    0.4476   -5.6444    3.3048 H   0  0  0  0  0  0  0  0  0  0  0  0
    2.0900   -3.4090    5.9481 H   0  0  0  0  0  0  0  0  0  0  0  0
    2.2621   -2.0558    4.7951 H   0  0  0  0  0  0  0  0  0  0  0  0
   -1.0265   -1.2190    7.3960 H   0  0  0  0  0  0  0  0  0  0  0  0
   -2.0012   -1.6794    5.0183 H   0  0  0  0  0  0  0  0  0  0  0  0
   -1.3314    0.0839    5.3605 H   0  0  0  0  0  0  0  0  0  0  0  0
   -2.7149    2.3244    4.1487 H   0  0  0  0  0  0  0  0  0  0  0  0
   -2.9809    2.2407    1.9815 H   0  0  0  0  0  0  0  0  0  0  0  0
   -4.5968   -0.2927    1.4366 H   0  0  0  0  0  0  0  0  0  0  0  0
   -5.0178    2.6054    0.5550 H   0  0  0  0  0  0  0  0  0  0  0  0
   -4.3824    1.3424   -0.4936 H   0  0  0  0  0  0  0  0  0  0  0  0
   -6.0310    1.2273    0.1231 H   0  0  0  0  0  0  0  0  0  0  0  0
   -5.1081    0.5626    3.6882 H   0  0  0  0  0  0  0  0  0  0  0  0
   -5.3071    2.1970    3.0511 H   0  0  0  0  0  0  0  0  0  0  0  0
   -6.4343    0.9244    2.5887 H   0  0  0  0  0  0  0  0  0  0  0  0
   -0.3457    3.2780   -1.5777 H   0  0  0  0  0  0  0  0  0  0  0  0
    0.8134    3.2468   -0.2431 H   0  0  0  0  0  0  0  0  0  0  0  0
    1.1456    1.9368   -2.9900 H   0  0  0  0  0  0  0  0  0  0  0  0
    2.0336    3.3622   -2.3992 H   0  0  0  0  0  0  0  0  0  0  0  0
    7.8022    5.4140   -2.1732 H   0  0  0  0  0  0  0  0  0  0  0  0
    6.7198    4.0747   -2.6271 H   0  0  0  0  0  0  0  0  0  0  0  0
    7.4654    5.0750   -3.8808 H   0  0  0  0  0  0  0  0  0  0  0  0
    6.9416    7.7470   -2.4334 H   0  0  0  0  0  0  0  0  0  0  0  0
    6.7937    7.3192   -4.1456 H   0  0  0  0  0  0  0  0  0  0  0  0
    5.3938    7.9580   -3.2898 H   0  0  0  0  0  0  0  0  0  0  0  0
    4.8585    6.0136    0.3927 H   0  0  0  0  0  0  0  0  0  0  0  0
    6.4660    5.5798   -0.1880 H   0  0  0  0  0  0  0  0  0  0  0  0
    5.8627    7.2336   -0.3978 H   0  0  0  0  0  0  0  0  0  0  0  0
    2.9045    6.2271   -1.3018 H   0  0  0  0  0  0  0  0  0  0  0  0
    3.8220    7.6443   -1.8025 H   0  0  0  0  0  0  0  0  0  0  0  0
    3.3269    6.4397   -3.0062 H   0  0  0  0  0  0  0  0  0  0  0  0
    1.6270   -0.2690   -1.9512 H   0  0  0  0  0  0  0  0  0  0  0  0
    2.8604   -0.3038   -0.6693 H   0  0  0  0  0  0  0  0  0  0  0  0
    1.3897    0.9828    0.8286 H   0  0  0  0  0  0  0  0  0  0  0  0
    0.5941   -0.4905    0.2723 H   0  0  0  0  0  0  0  0  0  0  0  0
   -2.4116   -1.2463    1.1035 H   0  0  0  0  0  0  0  0  0  0  0  0
   -3.1251   -0.6248   -0.4077 H   0  0  0  0  0  0  0  0  0  0  0  0
   -1.3838   -0.8498   -0.2767 H   0  0  0  0  0  0  0  0  0  0  0  0
   -2.1134    2.8078    6.4862 H   0  0  0  0  0  0  0  0  0  0  0  0
   -1.0721    1.6235    7.2797 H   0  0  0  0  0  0  0  0  0  0  0  0
    0.5342    3.0154    6.3452 H   0  0  0  0  0  0  0  0  0  0  0  0
    0.9310    0.7816    5.3782 H   0  0  0  0  0  0  0  0  0  0  0  0
   -0.1400    1.1911    3.9933 H   0  0  0  0  0  0  0  0  0  0  0  0
    2.1206    3.8167    2.8218 H   0  0  0  0  0  0  0  0  0  0  0  0
    0.5719    3.0076    2.4585 H   0  0  0  0  0  0  0  0  0  0  0  0
    1.1856    4.7025    4.9259 H   0  0  0  0  0  0  0  0  0  0  0  0
    0.1045    5.1210    3.5593 H   0  0  0  0  0  0  0  0  0  0  0  0
   -4.9956   -0.9567    7.6236 H   0  0  0  0  0  0  0  0  0  0  0  0
   -4.6622   -2.5456    6.8702 H   0  0  0  0  0  0  0  0  0  0  0  0
   -3.0192   -1.1722    9.0549 H   0  0  0  0  0  0  0  0  0  0  0  0
   -3.9812   -2.6417    9.2565 H   0  0  0  0  0  0  0  0  0  0  0  0
   -2.5166   -3.8669    7.6971 H   0  0  0  0  0  0  0  0  0  0  0  0
   -1.5030   -3.1157    8.9341 H   0  0  0  0  0  0  0  0  0  0  0  0
    5.4144    1.1009    1.6172 H   0  0  0  0  0  0  0  0  0  0  0  0
    4.0076    2.6412    2.8996 H   0  0  0  0  0  0  0  0  0  0  0  0
    1.0988   -0.4506    3.5428 H   0  0  0  0  0  0  0  0  0  0  0  0
  1  2  1  0  0  0  0
  2  3  1  0  0  0  0
  2  5  1  0  0  0  0
  3  4  1  0  0  0  0
  5  6  2  0  0  0  0
  5 10  1  0  0  0  0
  6  7  1  0  0  0  0
  7  8  2  0  0  0  0
  8  9  1  0  0  0  0
  9 10  2  0  0  0  0
 10 11  1  0  0  0  0
 11 12  1  0  0  0  0
 11 15  2  0  0  0  0
 12 13  1  0  0  0  0
 12 68  1  0  0  0  0
 13 14  1  0  0  0  0
 15 16  1  0  0  0  0
 15 67  1  0  0  0  0
 16 17  1  0  0  0  0
 17 18  1  0  0  0  0
 17 19  1  0  0  0  0
 17 20  1  0  0  0  0
 20 21  1  0  0  0  0
 21 22  1  0  0  0  0
 22 23  1  0  0  0  0
 22 66  2  0  0  0  0
 23 24  1  0  0  0  0
 23 65  1  0  0  0  0
 24 25  1  0  0  0  0
 25 26  1  0  0  0  0
 25 63  1  0  0  0  0
 26 27  1  0  0  0  0
 26 62  2  0  0  0  0
 27 28  1  0  0  0  0
 27 55  1  0  0  0  0
 28 29  1  0  0  0  0
 29 30  1  0  0  0  0
 29 54  2  0  0  0  0
 30 31  1  0  0  0  0
 30 34  1  0  0  0  0
 31 32  1  0  0  0  0
 31 33  1  0  0  0  0
 34 35  1  0  0  0  0
 34 53  1  0  0  0  0
 35 36  1  0  0  0  0
 35 52  2  0  0  0  0
 36 37  1  0  0  0  0
 36 51  1  0  0  0  0
 36 73  1  0  0  0  0
 37 38  1  0  0  0  0
 38 39  1  0  0  0  0
 39 40  1  0  0  0  0
 39 50  1  0  0  0  0
 40 41  1  0  0  0  0
 40 49  2  0  0  0  0
 42 43  1  0  0  0  0
 43 44  1  0  0  0  0
 43 47  1  0  0  0  0
 43 48  1  0  0  0  0
 44 45  1  0  0  0  0
 44 46  1  0  0  0  0
 50 51  1  0  0  0  0
 55 56  1  0  0  0  0
 56 57  1  0  0  0  0
 56 61  1  0  0  0  0
 57 58  1  0  0  0  0
 58 59  1  0  0  0  0
 58 71  1  0  0  0  0
 59 60  1  0  0  0  0
 60 61  1  0  0  0  0
 63 64  1  0  0  0  0
 64 65  1  0  0  0  0
 67 68  2  0  0  0  0
 67 72  1  0  0  0  0
 68 69  1  0  0  0  0
 69 70  2  0  0  0  0
 70 71  1  0  0  0  0
 71 72  2  0  0  0  0
 41 42  3  0  0  0  0
  1 74  1  0  0  0  0
  1 75  1  0  0  0  0
  1 76  1  0  0  0  0
  2 77  1  0  0  0  0
  4 78  1  0  0  0  0
  4 79  1  0  0  0  0
  4 80  1  0  0  0  0
  7 81  1  0  0  0  0
  8 82  1  0  0  0  0
  9 83  1  0  0  0  0
 13 84  1  0  0  0  0
 13 85  1  0  0  0  0
 14 86  1  0  0  0  0
 14 87  1  0  0  0  0
 14 88  1  0  0  0  0
 16 89  1  0  0  0  0
 16 90  1  0  0  0  0
 18 91  1  0  0  0  0
 18 92  1  0  0  0  0
 18 93  1  0  0  0  0
 19 94  1  0  0  0  0
 19 95  1  0  0  0  0
 19 96  1  0  0  0  0
 20 97  1  0  0  0  0
 20 98  1  0  0  0  0
 23 99  1  0  0  0  0
 24100  1  0  0  0  0
 27101  1  0  0  0  0
 28102  1  0  0  0  0
 30103  1  0  0  0  0
 31104  1  0  0  0  0
 32105  1  0  0  0  0
 32106  1  0  0  0  0
 32107  1  0  0  0  0
 33108  1  0  0  0  0
 33109  1  0  0  0  0
 33110  1  0  0  0  0
 37111  1  0  0  0  0
 37112  1  0  0  0  0
 38113  1  0  0  0  0
 38114  1  0  0  0  0
 45115  1  0  0  0  0
 45116  1  0  0  0  0
 45117  1  0  0  0  0
 46118  1  0  0  0  0
 46119  1  0  0  0  0
 46120  1  0  0  0  0
 47121  1  0  0  0  0
 47122  1  0  0  0  0
 47123  1  0  0  0  0
 48124  1  0  0  0  0
 48125  1  0  0  0  0
 48126  1  0  0  0  0
 50127  1  0  0  0  0
 50128  1  0  0  0  0
 51129  1  0  0  0  0
 51130  1  0  0  0  0
 53131  1  0  0  0  0
 53132  1  0  0  0  0
 53133  1  0  0  0  0
 55134  1  0  0  0  0
 55135  1  0  0  0  0
 56136  1  0  0  0  0
 57137  1  0  0  0  0
 57138  1  0  0  0  0
 59139  1  0  0  0  0
 59140  1  0  0  0  0
 60141  1  0  0  0  0
 60142  1  0  0  0  0
 63143  1  0  0  0  0
 63144  1  0  0  0  0
 64145  1  0  0  0  0
 64146  1  0  0  0  0
 65147  1  0  0  0  0
 65148  1  0  0  0  0
 69149  1  0  0  0  0
 70150  1  0  0  0  0
 72151  1  0  0  0  0
M  END
$$$$
