obj04
  PyMOL3.1          3D                             0

154160  0  0  0  0  0  0  0  0999 V2000
    6.9240   -1.5571   -6.2654 C   0  0  0  0  0  0  0  0  0  0  0  0
    6.2667   -2.2134   -3.9988 N   0  0  0  0  0  0  0  0  0  0  0  0
    8.7811   -1.2509   -1.9155 O   0  0  0  0  0  0  0  0  0  0  0  0
    5.9105   -1.3792   -5.1526 C   0  0  0  0  0  0  0  0  0  0  0  0
    7.4954   -1.9334   -3.5826 N   0  0  0  0  0  0  0  0  0  0  0  0
    2.6099    3.6111    5.0363 O   0  0  0  0  0  0  0  0  0  0  0  0
    8.5906   -2.1460   -4.5063 C   0  0  0  0  0  0  0  0  0  0  0  0
    6.8017   -1.5495   -0.0825 N   0  0  0  0  0  0  0  0  0  0  0  0
    6.1394   -0.2375    2.8642 O   0  0  0  0  0  0  0  0  0  0  0  0
    8.3208   -1.2895   -5.7355 C   0  0  0  0  0  0  0  0  0  0  0  0
    5.4980   -2.3506    2.7568 N   0  0  0  0  0  0  0  0  0  0  0  0
    5.9587   -3.6089    0.0483 O   0  0  0  0  0  0  0  0  0  0  0  0
    7.6759   -1.4977   -2.3452 C   0  0  0  0  0  0  0  0  0  0  0  0
    2.6128    1.3789    5.0208 N   0  0  0  0  0  0  0  0  0  0  0  0
    3.9935   -0.8770   -0.6180 O   0  0  0  0  0  0  0  0  0  0  0  0
    6.4716   -1.3094   -1.4684 C   0  0  0  0  0  0  0  0  0  0  0  0
    2.3879    4.6313    9.9049 N   0  0  0  0  0  0  0  0  0  0  0  0
   -3.3713    0.1595   -9.3965 O   0  0  0  0  0  0  0  0  0  0  0  0
    6.4757   -2.6488    0.5722 C   0  0  0  0  0  0  0  0  0  0  0  0
    2.2562    0.1919   -2.4701 N   0  0  0  0  0  0  0  0  0  0  0  0
    4.0527   -0.9789   -6.7338 O   0  0  0  0  0  0  0  0  0  0  0  0
    6.7614   -2.5892    2.0528 C   0  0  0  0  0  0  0  0  0  0  0  0
   -1.0478    1.6473   -6.6542 N   0  0  0  0  0  0  0  0  0  0  0  0
    3.9944   -2.7765   -5.3258 O   0  0  0  0  0  0  0  0  0  0  0  0
    5.2970   -1.0798    3.0648 C   0  0  0  0  0  0  0  0  0  0  0  0
   -1.5194    1.4637  -11.2329 N   0  0  0  0  0  0  0  0  0  0  0  0
    3.9680   -0.6319    3.6059 C   0  0  0  0  0  0  0  0  0  0  0  0
    3.7622    0.7695    3.0721 C   0  0  0  0  0  0  0  0  0  0  0  0
    2.4519    1.3222    3.5826 C   0  0  0  0  0  0  0  0  0  0  0  0
    2.6781    2.5570    5.6318 C   0  0  0  0  0  0  0  0  0  0  0  0
    2.8139    2.5853    7.0893 C   0  0  0  0  0  0  0  0  0  0  0  0
    2.0455    3.3472    7.8811 C   0  0  0  0  0  0  0  0  0  0  0  0
    2.3063    3.2700    9.3600 C   0  0  0  0  0  0  0  0  0  0  0  0
    3.6145    5.2927    9.4428 C   0  0  0  0  0  0  0  0  0  0  0  0
    2.3715    4.5771   11.3748 C   0  0  0  0  0  0  0  0  0  0  0  0
    1.1547    2.5074   10.0102 C   0  0  0  0  0  0  0  0  0  0  0  0
    3.6388    2.5801    9.6153 C   0  0  0  0  0  0  0  0  0  0  0  0
    2.6939    0.0845    5.6775 C   0  0  0  0  0  0  0  0  0  0  0  0
    3.9427   -0.6178    5.1331 C   0  0  0  0  0  0  0  0  0  0  0  0
    4.5516   -3.4352    2.9916 C   0  0  0  0  0  0  0  0  0  0  0  0
    7.4430   -3.8680    2.5496 C   0  0  0  0  0  0  0  0  0  0  0  0
    7.7248   -3.8267    4.0440 C   0  0  0  0  0  0  0  0  0  0  0  0
    8.7916   -3.9890    1.8522 C   0  0  0  0  0  0  0  0  0  0  0  0
    5.9401    0.1082   -1.6385 C   0  0  0  0  0  0  0  0  0  0  0  0
    4.4495    0.2514   -1.3319 C   0  0  0  0  0  0  0  0  0  0  0  0
    2.6584   -0.6716   -0.1891 C   0  0  0  0  0  0  0  0  0  0  0  0
    1.6865   -0.5552   -1.3563 C   0  0  0  0  0  0  0  0  0  0  0  0
    1.3722    0.6077   -3.4828 C   0  0  0  0  0  0  0  0  0  0  0  0
    1.8042    0.6608   -4.8043 C   0  0  0  0  0  0  0  0  0  0  0  0
    0.9224    1.0323   -5.8133 C   0  0  0  0  0  0  0  0  0  0  0  0
   -0.3987    1.3325   -5.5263 C   0  0  0  0  0  0  0  0  0  0  0  0
   -0.8310    1.2611   -4.2094 C   0  0  0  0  0  0  0  0  0  0  0  0
    0.0426    0.8973   -3.1960 C   0  0  0  0  0  0  0  0  0  0  0  0
   -2.4493    2.0431   -6.7181 C   0  0  0  0  0  0  0  0  0  0  0  0
   -2.5200    3.5526   -6.6350 C   0  0  0  0  0  0  0  0  0  0  0  0
   -0.2203    1.5779   -7.6992 C   0  0  0  0  0  0  0  0  0  0  0  0
   -0.5244    1.8804   -9.1305 C   0  0  0  0  0  0  0  0  0  0  0  0
   -1.3165    1.0954   -9.9592 C   0  0  0  0  0  0  0  0  0  0  0  0
   -1.9854   -0.1333   -9.4948 C   0  0  0  0  0  0  0  0  0  0  0  0
   -4.0555   -0.7873   -8.5927 C   0  0  0  0  0  0  0  0  0  0  0  0
   -1.7660   -1.2659  -10.4910 C   0  0  0  0  0  0  0  0  0  0  0  0
   -0.9537    2.5549  -11.7344 C   0  0  0  0  0  0  0  0  0  0  0  0
   -0.1590    3.3717  -10.9625 C   0  0  0  0  0  0  0  0  0  0  0  0
    0.0559    3.0238   -9.6504 C   0  0  0  0  0  0  0  0  0  0  0  0
    1.1032    1.1543   -7.1838 C   0  0  0  0  0  0  0  0  0  0  0  0
    2.3669    0.9808   -8.0001 C   0  0  0  0  0  0  0  0  0  0  0  0
    2.7352   -0.3848   -8.5583 C   0  0  0  0  0  0  0  0  0  0  0  0
    4.0598   -0.2206   -9.2840 C   0  0  0  0  0  0  0  0  0  0  0  0
    1.7031   -0.8938   -9.5379 C   0  0  0  0  0  0  0  0  0  0  0  0
    2.9169   -1.4054   -7.4592 C   0  0  0  0  0  0  0  0  0  0  0  0
    4.5938   -1.7997   -5.6991 C   0  0  0  0  0  0  0  0  0  0  0  0
    3.6910    0.3901   -2.6517 C   0  0  0  0  0  0  0  0  0  0  0  0
    3.0184   -1.4017    3.1365 F   0  0  0  0  0  0  0  0  0  0  0  0
    6.7032   -0.8546   -7.0690 H   0  0  0  0  0  0  0  0  0  0  0  0
    6.8697   -2.5772   -6.6457 H   0  0  0  0  0  0  0  0  0  0  0  0
    5.6610   -2.9045   -3.5797 H   0  0  0  0  0  0  0  0  0  0  0  0
    5.8832   -0.3432   -4.8148 H   0  0  0  0  0  0  0  0  0  0  0  0
    8.6653   -3.1986   -4.7792 H   0  0  0  0  0  0  0  0  0  0  0  0
    9.5321   -1.8495   -4.0439 H   0  0  0  0  0  0  0  0  0  0  0  0
    7.3122   -0.8340    0.4151 H   0  0  0  0  0  0  0  0  0  0  0  0
    8.4006   -0.2379   -5.4602 H   0  0  0  0  0  0  0  0  0  0  0  0
    9.0515   -1.5278   -6.5085 H   0  0  0  0  0  0  0  0  0  0  0  0
    5.7061   -2.0267   -1.7644 H   0  0  0  0  0  0  0  0  0  0  0  0
    7.4560   -1.7739    2.2551 H   0  0  0  0  0  0  0  0  0  0  0  0
    3.7413    0.7408    1.9827 H   0  0  0  0  0  0  0  0  0  0  0  0
    4.5800    1.4085    3.4052 H   0  0  0  0  0  0  0  0  0  0  0  0
    2.2212    2.2978    3.1546 H   0  0  0  0  0  0  0  0  0  0  0  0
    1.6253    0.6649    3.3130 H   0  0  0  0  0  0  0  0  0  0  0  0
    3.7869    3.0624    7.2072 H   0  0  0  0  0  0  0  0  0  0  0  0
    2.6664    1.5588    7.4249 H   0  0  0  0  0  0  0  0  0  0  0  0
    1.8698    3.3824    6.8059 H   0  0  0  0  0  0  0  0  0  0  0  0
    4.4248    4.5650    9.3994 H   0  0  0  0  0  0  0  0  0  0  0  0
    3.4500    5.7121    8.4502 H   0  0  0  0  0  0  0  0  0  0  0  0
    3.8805    6.0910   10.1356 H   0  0  0  0  0  0  0  0  0  0  0  0
    1.6720    5.3204   11.7573 H   0  0  0  0  0  0  0  0  0  0  0  0
    2.0592    3.5844   11.6989 H   0  0  0  0  0  0  0  0  0  0  0  0
    3.3700    4.7876   11.7579 H   0  0  0  0  0  0  0  0  0  0  0  0
    0.2768    2.5579    9.3662 H   0  0  0  0  0  0  0  0  0  0  0  0
    1.4418    1.4654   10.1511 H   0  0  0  0  0  0  0  0  0  0  0  0
    0.9219    2.9546   10.9766 H   0  0  0  0  0  0  0  0  0  0  0  0
    4.3772    3.3202    9.9238 H   0  0  0  0  0  0  0  0  0  0  0  0
    3.5188    1.8369   10.4035 H   0  0  0  0  0  0  0  0  0  0  0  0
    3.9760    2.0904    8.7017 H   0  0  0  0  0  0  0  0  0  0  0  0
    1.7994   -0.5069    5.4821 H   0  0  0  0  0  0  0  0  0  0  0  0
    2.7780    0.2161    6.7563 H   0  0  0  0  0  0  0  0  0  0  0  0
    4.8175   -0.0680    5.4802 H   0  0  0  0  0  0  0  0  0  0  0  0
    3.9562   -1.6456    5.4960 H   0  0  0  0  0  0  0  0  0  0  0  0
    3.6309   -3.2386    2.4423 H   0  0  0  0  0  0  0  0  0  0  0  0
    4.9839   -4.3757    2.6501 H   0  0  0  0  0  0  0  0  0  0  0  0
    4.3312   -3.5016    4.0570 H   0  0  0  0  0  0  0  0  0  0  0  0
    6.7754   -4.7028    2.3361 H   0  0  0  0  0  0  0  0  0  0  0  0
    8.5021   -3.0898    4.2463 H   0  0  0  0  0  0  0  0  0  0  0  0
    6.8157   -3.5509    4.5783 H   0  0  0  0  0  0  0  0  0  0  0  0
    8.0599   -4.8085    4.3784 H   0  0  0  0  0  0  0  0  0  0  0  0
    9.5517   -4.2747    2.5794 H   0  0  0  0  0  0  0  0  0  0  0  0
    8.7314   -4.7487    1.0729 H   0  0  0  0  0  0  0  0  0  0  0  0
    9.0580   -3.0307    1.4065 H   0  0  0  0  0  0  0  0  0  0  0  0
    6.0740    0.3723   -2.6875 H   0  0  0  0  0  0  0  0  0  0  0  0
    6.4938    0.7658   -0.9684 H   0  0  0  0  0  0  0  0  0  0  0  0
    4.2781    1.1352   -0.7174 H   0  0  0  0  0  0  0  0  0  0  0  0
    2.6274    0.2669    0.3644 H   0  0  0  0  0  0  0  0  0  0  0  0
    2.3572   -1.5122    0.4360 H   0  0  0  0  0  0  0  0  0  0  0  0
    1.4614   -1.5623   -1.7075 H   0  0  0  0  0  0  0  0  0  0  0  0
    0.7851   -0.0463   -1.0149 H   0  0  0  0  0  0  0  0  0  0  0  0
    2.8364    0.4106   -5.0492 H   0  0  0  0  0  0  0  0  0  0  0  0
   -1.8685    1.4935   -3.9692 H   0  0  0  0  0  0  0  0  0  0  0  0
   -0.3150    0.8380   -2.1680 H   0  0  0  0  0  0  0  0  0  0  0  0
   -3.0043    1.5951   -5.8939 H   0  0  0  0  0  0  0  0  0  0  0  0
   -2.8866    1.7039   -7.6572 H   0  0  0  0  0  0  0  0  0  0  0  0
   -3.4565    3.8464   -6.1609 H   0  0  0  0  0  0  0  0  0  0  0  0
   -1.6824    3.9242   -6.0447 H   0  0  0  0  0  0  0  0  0  0  0  0
   -2.4734    3.9749   -7.6388 H   0  0  0  0  0  0  0  0  0  0  0  0
   -1.5810   -0.4504   -8.5336 H   0  0  0  0  0  0  0  0  0  0  0  0
   -5.0413   -0.9781   -9.0168 H   0  0  0  0  0  0  0  0  0  0  0  0
   -3.4875   -1.7171   -8.5624 H   0  0  0  0  0  0  0  0  0  0  0  0
   -4.1653   -0.3948   -7.5818 H   0  0  0  0  0  0  0  0  0  0  0  0
   -0.7430   -1.6320  -10.4045 H   0  0  0  0  0  0  0  0  0  0  0  0
   -2.4612   -2.0779  -10.2778 H   0  0  0  0  0  0  0  0  0  0  0  0
   -1.9353   -0.8982  -11.5031 H   0  0  0  0  0  0  0  0  0  0  0  0
   -1.1223    2.8097  -12.7807 H   0  0  0  0  0  0  0  0  0  0  0  0
    0.2890    4.2726  -11.3817 H   0  0  0  0  0  0  0  0  0  0  0  0
    0.6849    3.6501   -9.0179 H   0  0  0  0  0  0  0  0  0  0  0  0
    3.1584    1.1747   -7.2762 H   0  0  0  0  0  0  0  0  0  0  0  0
    2.2867    1.6571   -8.8511 H   0  0  0  0  0  0  0  0  0  0  0  0
    4.8384   -0.7595   -8.7441 H   0  0  0  0  0  0  0  0  0  0  0  0
    3.9738   -0.6225  -10.2936 H   0  0  0  0  0  0  0  0  0  0  0  0
    4.3187    0.8370   -9.3341 H   0  0  0  0  0  0  0  0  0  0  0  0
    0.8395   -0.2288   -9.5331 H   0  0  0  0  0  0  0  0  0  0  0  0
    2.1339   -0.9217  -10.5387 H   0  0  0  0  0  0  0  0  0  0  0  0
    1.3901   -1.8969   -9.2483 H   0  0  0  0  0  0  0  0  0  0  0  0
    2.0342   -1.4775   -6.8237 H   0  0  0  0  0  0  0  0  0  0  0  0
    3.0835   -2.3963   -7.8818 H   0  0  0  0  0  0  0  0  0  0  0  0
    3.8501    1.3993   -3.0317 H   0  0  0  0  0  0  0  0  0  0  0  0
    4.0652   -0.3533   -3.3555 H   0  0  0  0  0  0  0  0  0  0  0  0
  1  4  1  0  0  0  0
  1 10  1  0  0  0  0
  1 74  1  0  0  0  0
  1 75  1  0  0  0  0
  2  4  1  0  0  0  0
  2  5  1  0  0  0  0
  2 76  1  0  0  0  0
  3 13  2  0  0  0  0
  4 71  1  0  0  0  0
  4 77  1  0  0  0  0
  5  7  1  0  0  0  0
  5 13  1  0  0  0  0
  6 30  2  0  0  0  0
  7 10  1  0  0  0  0
  7 78  1  0  0  0  0
  7 79  1  0  0  0  0
  8 16  1  0  0  0  0
  8 19  1  0  0  0  0
  8 80  1  0  0  0  0
  9 25  2  0  0  0  0
 10 81  1  0  0  0  0
 10 82  1  0  0  0  0
 11 22  1  0  0  0  0
 11 25  1  0  0  0  0
 11 40  1  0  0  0  0
 12 19  2  0  0  0  0
 13 16  1  0  0  0  0
 14 29  1  0  0  0  0
 14 30  1  0  0  0  0
 14 38  1  0  0  0  0
 15 45  1  0  0  0  0
 15 46  1  0  0  0  0
 16 44  1  0  0  0  0
 16 83  1  0  0  0  0
 17 33  1  0  0  0  0
 17 34  1  0  0  0  0
 17 35  1  0  0  0  0
 18 59  1  0  0  0  0
 18 60  1  0  0  0  0
 19 22  1  0  0  0  0
 20 47  1  0  0  0  0
 20 48  1  0  0  0  0
 20 72  1  0  0  0  0
 21 70  1  0  0  0  0
 21 71  1  0  0  0  0
 22 41  1  0  0  0  0
 22 84  1  0  0  0  0
 23 51  4  0  0  0  0
 23 54  1  0  0  0  0
 23 56  4  0  0  0  0
 24 71  2  0  0  0  0
 25 27  1  0  0  0  0
 26 58  4  0  0  0  0
 26 62  4  0  0  0  0
 27 28  1  0  0  0  0
 27 39  1  0  0  0  0
 27 73  1  0  0  0  0
 28 29  1  0  0  0  0
 28 85  1  0  0  0  0
 28 86  1  0  0  0  0
 29 87  1  0  0  0  0
 29 88  1  0  0  0  0
 30 31  1  0  0  0  0
 31 32  1  0  0  0  0
 31 89  1  0  0  0  0
 31 90  1  0  0  0  0
 32 33  1  0  0  0  0
 32 91  1  0  0  0  0
 33 36  1  0  0  0  0
 33 37  1  0  0  0  0
 34 92  1  0  0  0  0
 34 93  1  0  0  0  0
 34 94  1  0  0  0  0
 35 95  1  0  0  0  0
 35 96  1  0  0  0  0
 35 97  1  0  0  0  0
 36 98  1  0  0  0  0
 36 99  1  0  0  0  0
 36100  1  0  0  0  0
 37101  1  0  0  0  0
 37102  1  0  0  0  0
 37103  1  0  0  0  0
 38 39  1  0  0  0  0
 38104  1  0  0  0  0
 38105  1  0  0  0  0
 39106  1  0  0  0  0
 39107  1  0  0  0  0
 40108  1  0  0  0  0
 40109  1  0  0  0  0
 40110  1  0  0  0  0
 41 42  1  0  0  0  0
 41 43  1  0  0  0  0
 41111  1  0  0  0  0
 42112  1  0  0  0  0
 42113  1  0  0  0  0
 42114  1  0  0  0  0
 43115  1  0  0  0  0
 43116  1  0  0  0  0
 43117  1  0  0  0  0
 44 45  1  0  0  0  0
 44118  1  0  0  0  0
 44119  1  0  0  0  0
 45 72  1  0  0  0  0
 45120  1  0  0  0  0
 46 47  1  0  0  0  0
 46121  1  0  0  0  0
 46122  1  0  0  0  0
 47123  1  0  0  0  0
 47124  1  0  0  0  0
 48 49  4  0  0  0  0
 48 53  4  0  0  0  0
 49 50  4  0  0  0  0
 49125  1  0  0  0  0
 50 51  4  0  0  0  0
 50 65  4  0  0  0  0
 51 52  4  0  0  0  0
 52 53  4  0  0  0  0
 52126  1  0  0  0  0
 53127  1  0  0  0  0
 54 55  1  0  0  0  0
 54128  1  0  0  0  0
 54129  1  0  0  0  0
 55130  1  0  0  0  0
 55131  1  0  0  0  0
 55132  1  0  0  0  0
 56 57  1  0  0  0  0
 56 65  4  0  0  0  0
 57 58  4  0  0  0  0
 57 64  4  0  0  0  0
 58 59  1  0  0  0  0
 59 61  1  0  0  0  0
 59133  1  0  0  0  0
 60134  1  0  0  0  0
 60135  1  0  0  0  0
 60136  1  0  0  0  0
 61137  1  0  0  0  0
 61138  1  0  0  0  0
 61139  1  0  0  0  0
 62 63  4  0  0  0  0
 62140  1  0  0  0  0
 63 64  4  0  0  0  0
 63141  1  0  0  0  0
 64142  1  0  0  0  0
 65 66  1  0  0  0  0
 66 67  1  0  0  0  0
 66143  1  0  0  0  0
 66144  1  0  0  0  0
 67 68  1  0  0  0  0
 67 69  1  0  0  0  0
 67 70  1  0  0  0  0
 68145  1  0  0  0  0
 68146  1  0  0  0  0
 68147  1  0  0  0  0
 69148  1  0  0  0  0
 69149  1  0  0  0  0
 69150  1  0  0  0  0
 70151  1  0  0  0  0
 70152  1  0  0  0  0
 72153  1  0  0  0  0
 72154  1  0  0  0  0
M  END
$$$$
