 energy: -221.279796450197 gnorm: 0.000354890473 xtb: 6.7.1 (edcfbbe)
          08172520003D

151157  0     0  0            999 V2000
    2.9720    7.6783   -7.9212 C   0  0  0  0  0  0  0  0  0  0  0  0
    2.7955    6.2648   -7.3695 C   0  0  0  0  0  0  0  0  0  0  0  0
    3.9429    5.4555   -7.5843 O   0  0  0  0  0  0  0  0  0  0  0  0
    4.9685    5.6373   -6.6444 C   0  0  0  0  0  0  0  0  0  0  0  0
    1.6381    5.5519   -8.0420 C   0  0  0  0  0  0  0  0  0  0  0  0
    1.2735    5.9866   -9.2357 N   0  0  0  0  0  0  0  0  0  0  0  0
    0.2680    5.4015   -9.8593 C   0  0  0  0  0  0  0  0  0  0  0  0
   -0.4541    4.3531   -9.3126 C   0  0  0  0  0  0  0  0  0  0  0  0
   -0.0825    3.8937   -8.0608 C   0  0  0  0  0  0  0  0  0  0  0  0
    0.9957    4.4805   -7.4051 C   0  0  0  0  0  0  0  0  0  0  0  0
    1.4106    4.0231   -6.0704 C   0  0  0  0  0  0  0  0  0  0  0  0
    0.7588    4.4910   -4.9507 N   0  0  0  0  0  0  0  0  0  0  0  0
   -0.3614    5.3925   -4.9332 C   0  0  0  0  0  0  0  0  0  0  0  0
   -1.6892    4.6535   -4.7696 C   0  0  0  0  0  0  0  0  0  0  0  0
    2.4346    3.1801   -5.7100 C   0  0  0  0  0  0  0  0  0  0  0  0
    3.3752    2.4859   -6.6420 C   0  0  0  0  0  0  0  0  0  0  0  0
    2.9854    1.0424   -7.0380 C   0  0  0  0  0  0  0  0  0  0  0  0
    3.8620    0.6042   -8.2138 C   0  0  0  0  0  0  0  0  0  0  0  0
    1.5155    0.9585   -7.4441 C   0  0  0  0  0  0  0  0  0  0  0  0
    3.2061    0.0845   -5.8631 C   0  0  0  0  0  0  0  0  0  0  0  0
    4.6023    0.0138   -5.5558 O   0  0  0  0  0  0  0  0  0  0  0  0
    4.9386   -0.6939   -4.4876 C   0  0  0  0  0  0  0  0  0  0  0  0
    6.4381   -0.6576   -4.2316 C   0  0  0  0  0  0  0  0  0  0  0  0
    6.8601   -1.8290   -3.4831 N   0  0  0  0  0  0  0  0  0  0  0  0
    8.1332   -1.6049   -2.9538 N   0  0  0  0  0  0  0  0  0  0  0  0
    8.4023   -0.9622   -1.7934 C   0  0  0  0  0  0  0  0  0  0  0  0
    7.1963   -0.6835   -0.8741 C   0  0  0  0  0  0  0  0  0  0  0  0
    7.1961   -1.6469    0.2045 N   0  0  0  0  0  0  0  0  0  0  0  0
    6.5574   -2.8162    0.0758 C   0  0  0  0  0  0  0  0  0  0  0  0
    6.5720   -3.6564    1.3557 C   0  0  0  0  0  0  0  0  0  0  0  0
    6.6000   -5.1632    1.0776 C   0  0  0  0  0  0  0  0  0  0  0  0
    6.6178   -5.9466    2.3880 C   0  0  0  0  0  0  0  0  0  0  0  0
    7.8464   -5.4880    0.2550 C   0  0  0  0  0  0  0  0  0  0  0  0
    5.4141   -3.2219    2.1430 N   0  0  0  0  0  0  0  0  0  0  0  0
    5.6515   -2.2756    3.0687 C   0  0  0  0  0  0  0  0  0  0  0  0
    4.5359   -1.8623    4.0490 C   0  0  0  0  0  0  0  0  0  0  0  0
    4.2436   -3.0188    5.0100 C   0  0  0  0  0  0  0  0  0  0  0  0
    3.2302   -2.5823    6.0710 C   0  0  0  0  0  0  0  0  0  0  0  0
    3.6831   -1.3918    6.7476 N   0  0  0  0  0  0  0  0  0  0  0  0
    3.9571   -1.4266    8.0762 C   0  0  0  0  0  0  0  0  0  0  0  0
    4.4186   -0.1762    8.6318 C   0  0  0  0  0  0  0  0  0  0  0  0
    4.8165    0.7886    9.2310 C   0  0  0  0  0  0  0  0  0  0  0  0
    5.1995    2.0252    9.9075 C   0  0  0  0  0  0  0  0  0  0  0  0
    6.6496    2.2050    9.7838 N   0  0  0  0  0  0  0  0  0  0  0  0
    7.1657    2.0596    8.4401 C   0  0  0  0  0  0  0  0  0  0  0  0
    7.1724    3.4029   10.4023 C   0  0  0  0  0  0  0  0  0  0  0  0
    4.8216    1.8425   11.3875 C   0  0  0  0  0  0  0  0  0  0  0  0
    4.3603    3.1658    9.2904 C   0  0  0  0  0  0  0  0  0  0  0  0
    3.8026   -2.4201    8.7620 O   0  0  0  0  0  0  0  0  0  0  0  0
    3.9139   -0.2654    5.8795 C   0  0  0  0  0  0  0  0  0  0  0  0
    4.9662   -0.6173    4.8265 C   0  0  0  0  0  0  0  0  0  0  0  0
    6.7714   -1.8137    3.2421 O   0  0  0  0  0  0  0  0  0  0  0  0
    4.1293   -3.6802    1.6600 C   0  0  0  0  0  0  0  0  0  0  0  0
    5.9753   -3.1566   -0.9411 O   0  0  0  0  0  0  0  0  0  0  0  0
    7.2548    0.7529   -0.3532 C   0  0  0  0  0  0  0  0  0  0  0  0
    5.8658    1.3238   -0.0559 C   0  0  0  0  0  0  0  0  0  0  0  0
    5.0400    1.5520   -1.3338 C   0  0  0  0  0  0  0  0  0  0  0  0
    3.7473    2.0891   -0.9665 N   0  0  0  0  0  0  0  0  0  0  0  0
    3.0669    1.1536   -0.0854 C   0  0  0  0  0  0  0  0  0  0  0  0
    3.9240    0.9423    1.1600 C   0  0  0  0  0  0  0  0  0  0  0  0
    5.1989    0.4453    0.8273 O   0  0  0  0  0  0  0  0  0  0  0  0
    9.5365   -0.6720   -1.4607 O   0  0  0  0  0  0  0  0  0  0  0  0
    9.1128   -1.6437   -4.0245 C   0  0  0  0  0  0  0  0  0  0  0  0
    8.7894   -0.5377   -5.0374 C   0  0  0  0  0  0  0  0  0  0  0  0
    7.3244   -0.6146   -5.4808 C   0  0  0  0  0  0  0  0  0  0  0  0
    4.1561   -1.2439   -3.7565 O   0  0  0  0  0  0  0  0  0  0  0  0
    2.4286    3.1321   -4.2814 C   0  0  0  0  0  0  0  0  0  0  0  0
    1.3602    3.9504   -3.8473 C   0  0  0  0  0  0  0  0  0  0  0  0
    1.0842    4.1189   -2.4955 C   0  0  0  0  0  0  0  0  0  0  0  0
    1.8853    3.4696   -1.5879 C   0  0  0  0  0  0  0  0  0  0  0  0
    2.9622    2.6560   -1.9900 C   0  0  0  0  0  0  0  0  0  0  0  0
    3.2378    2.4956   -3.3369 C   0  0  0  0  0  0  0  0  0  0  0  0
    3.3529   -1.5325    3.3831 F   0  0  0  0  0  0  0  0  0  0  0  0
    3.7896    8.1853   -7.4152 H   0  0  0  0  0  0  0  0  0  0  0  0
    3.1827    7.6225   -8.9843 H   0  0  0  0  0  0  0  0  0  0  0  0
    2.0584    8.2465   -7.7728 H   0  0  0  0  0  0  0  0  0  0  0  0
    2.5934    6.3111   -6.2852 H   0  0  0  0  0  0  0  0  0  0  0  0
    4.6142    5.4250   -5.6274 H   0  0  0  0  0  0  0  0  0  0  0  0
    5.7509    4.9288   -6.9098 H   0  0  0  0  0  0  0  0  0  0  0  0
    5.3805    6.6519   -6.6733 H   0  0  0  0  0  0  0  0  0  0  0  0
    0.0280    5.8041  -10.8346 H   0  0  0  0  0  0  0  0  0  0  0  0
   -1.2825    3.9119   -9.8447 H   0  0  0  0  0  0  0  0  0  0  0  0
   -0.6214    3.0834   -7.5909 H   0  0  0  0  0  0  0  0  0  0  0  0
   -0.2268    6.0950   -4.1043 H   0  0  0  0  0  0  0  0  0  0  0  0
   -0.3639    5.9609   -5.8680 H   0  0  0  0  0  0  0  0  0  0  0  0
   -1.6769    4.0545   -3.8623 H   0  0  0  0  0  0  0  0  0  0  0  0
   -2.5071    5.3663   -4.7096 H   0  0  0  0  0  0  0  0  0  0  0  0
   -1.8640    3.9947   -5.6163 H   0  0  0  0  0  0  0  0  0  0  0  0
    3.4490    3.0820   -7.5532 H   0  0  0  0  0  0  0  0  0  0  0  0
    4.3660    2.4482   -6.1843 H   0  0  0  0  0  0  0  0  0  0  0  0
    4.9135    0.6698   -7.9487 H   0  0  0  0  0  0  0  0  0  0  0  0
    3.6407   -0.4242   -8.4914 H   0  0  0  0  0  0  0  0  0  0  0  0
    3.6802    1.2417   -9.0754 H   0  0  0  0  0  0  0  0  0  0  0  0
    0.8727    1.2240   -6.6083 H   0  0  0  0  0  0  0  0  0  0  0  0
    1.3223    1.6395   -8.2685 H   0  0  0  0  0  0  0  0  0  0  0  0
    1.2656   -0.0510   -7.7637 H   0  0  0  0  0  0  0  0  0  0  0  0
    2.6597    0.4187   -4.9754 H   0  0  0  0  0  0  0  0  0  0  0  0
    2.8597   -0.9239   -6.1155 H   0  0  0  0  0  0  0  0  0  0  0  0
    6.6099    0.2767   -3.6553 H   0  0  0  0  0  0  0  0  0  0  0  0
    6.1975   -2.1886   -2.7975 H   0  0  0  0  0  0  0  0  0  0  0  0
    6.2612   -0.8414   -1.4163 H   0  0  0  0  0  0  0  0  0  0  0  0
    7.5792   -1.3747    1.0986 H   0  0  0  0  0  0  0  0  0  0  0  0
    7.4576   -3.3952    1.9433 H   0  0  0  0  0  0  0  0  0  0  0  0
    5.7231   -5.4407    0.4877 H   0  0  0  0  0  0  0  0  0  0  0  0
    5.7515   -5.7204    3.0044 H   0  0  0  0  0  0  0  0  0  0  0  0
    6.6241   -7.0148    2.1854 H   0  0  0  0  0  0  0  0  0  0  0  0
    7.5109   -5.7007    2.9587 H   0  0  0  0  0  0  0  0  0  0  0  0
    7.9057   -6.5588    0.0767 H   0  0  0  0  0  0  0  0  0  0  0  0
    7.8127   -4.9821   -0.7058 H   0  0  0  0  0  0  0  0  0  0  0  0
    8.7460   -5.1756    0.7815 H   0  0  0  0  0  0  0  0  0  0  0  0
    3.8477   -3.8724    4.4593 H   0  0  0  0  0  0  0  0  0  0  0  0
    5.1814   -3.3104    5.4849 H   0  0  0  0  0  0  0  0  0  0  0  0
    2.2658   -2.3768    5.5910 H   0  0  0  0  0  0  0  0  0  0  0  0
    3.1009   -3.3643    6.8219 H   0  0  0  0  0  0  0  0  0  0  0  0
    8.2535    2.0201    8.4958 H   0  0  0  0  0  0  0  0  0  0  0  0
    6.8090    1.1266    8.0091 H   0  0  0  0  0  0  0  0  0  0  0  0
    6.8896    2.8904    7.7712 H   0  0  0  0  0  0  0  0  0  0  0  0
    6.8028    3.4977   11.4192 H   0  0  0  0  0  0  0  0  0  0  0  0
    8.2583    3.3123   10.4455 H   0  0  0  0  0  0  0  0  0  0  0  0
    6.9316    4.3222    9.8457 H   0  0  0  0  0  0  0  0  0  0  0  0
    5.5342    1.1747   11.8636 H   0  0  0  0  0  0  0  0  0  0  0  0
    4.8111    2.7938   11.9132 H   0  0  0  0  0  0  0  0  0  0  0  0
    3.8297    1.4025   11.4584 H   0  0  0  0  0  0  0  0  0  0  0  0
    4.5499    4.0991    9.8150 H   0  0  0  0  0  0  0  0  0  0  0  0
    4.6013    3.2949    8.2374 H   0  0  0  0  0  0  0  0  0  0  0  0
    3.3027    2.9284    9.3744 H   0  0  0  0  0  0  0  0  0  0  0  0
    2.9727   -0.0061    5.3781 H   0  0  0  0  0  0  0  0  0  0  0  0
    4.2432    0.5877    6.4744 H   0  0  0  0  0  0  0  0  0  0  0  0
    5.9278   -0.8197    5.2966 H   0  0  0  0  0  0  0  0  0  0  0  0
    5.0942    0.2084    4.1257 H   0  0  0  0  0  0  0  0  0  0  0  0
    3.3228   -3.0383    1.9899 H   0  0  0  0  0  0  0  0  0  0  0  0
    4.1453   -3.6668    0.5691 H   0  0  0  0  0  0  0  0  0  0  0  0
    3.9311   -4.7014    1.9938 H   0  0  0  0  0  0  0  0  0  0  0  0
    7.8564    0.7723    0.5563 H   0  0  0  0  0  0  0  0  0  0  0  0
    7.7475    1.3913   -1.0886 H   0  0  0  0  0  0  0  0  0  0  0  0
    5.9805    2.3055    0.4382 H   0  0  0  0  0  0  0  0  0  0  0  0
    5.5596    2.2768   -1.9649 H   0  0  0  0  0  0  0  0  0  0  0  0
    4.9284    0.6002   -1.8774 H   0  0  0  0  0  0  0  0  0  0  0  0
    2.0926    1.5492    0.1982 H   0  0  0  0  0  0  0  0  0  0  0  0
    2.9226    0.1824   -0.5884 H   0  0  0  0  0  0  0  0  0  0  0  0
    4.0281    1.8997    1.6950 H   0  0  0  0  0  0  0  0  0  0  0  0
    3.4672    0.2028    1.8163 H   0  0  0  0  0  0  0  0  0  0  0  0
   10.1011   -1.5010   -3.5882 H   0  0  0  0  0  0  0  0  0  0  0  0
    9.0474   -2.6255   -4.4973 H   0  0  0  0  0  0  0  0  0  0  0  0
    8.9757    0.4313   -4.5677 H   0  0  0  0  0  0  0  0  0  0  0  0
    9.4484   -0.6289   -5.9009 H   0  0  0  0  0  0  0  0  0  0  0  0
    7.1577   -1.5284   -6.0521 H   0  0  0  0  0  0  0  0  0  0  0  0
    7.0685    0.2422   -6.1036 H   0  0  0  0  0  0  0  0  0  0  0  0
    0.2742    4.7487   -2.1589 H   0  0  0  0  0  0  0  0  0  0  0  0
    1.7058    3.6018   -0.5320 H   0  0  0  0  0  0  0  0  0  0  0  0
    4.0675    1.8927   -3.6690 H   0  0  0  0  0  0  0  0  0  0  0  0
  1  2  1  0  0  0  0
  2  3  1  0  0  0  0
  2  5  1  0  0  0  0
  3  4  1  0  0  0  0
  5  6  2  0  0  0  0
  5 10  1  0  0  0  0
  6  7  1  0  0  0  0
  7  8  2  0  0  0  0
  8  9  1  0  0  0  0
  9 10  2  0  0  0  0
 10 11  1  0  0  0  0
 11 12  1  0  0  0  0
 11 15  2  0  0  0  0
 12 13  1  0  0  0  0
 12 68  1  0  0  0  0
 13 14  1  0  0  0  0
 15 16  1  0  0  0  0
 15 67  1  0  0  0  0
 16 17  1  0  0  0  0
 17 18  1  0  0  0  0
 17 19  1  0  0  0  0
 17 20  1  0  0  0  0
 20 21  1  0  0  0  0
 21 22  1  0  0  0  0
 22 23  1  0  0  0  0
 22 66  2  0  0  0  0
 23 24  1  0  0  0  0
 23 65  1  0  0  0  0
 24 25  1  0  0  0  0
 25 26  1  0  0  0  0
 25 63  1  0  0  0  0
 26 27  1  0  0  0  0
 26 62  2  0  0  0  0
 27 28  1  0  0  0  0
 27 55  1  0  0  0  0
 28 29  1  0  0  0  0
 29 30  1  0  0  0  0
 29 54  2  0  0  0  0
 30 31  1  0  0  0  0
 30 34  1  0  0  0  0
 31 32  1  0  0  0  0
 31 33  1  0  0  0  0
 34 35  1  0  0  0  0
 34 53  1  0  0  0  0
 35 36  1  0  0  0  0
 35 52  2  0  0  0  0
 36 37  1  0  0  0  0
 36 51  1  0  0  0  0
 36 73  1  0  0  0  0
 37 38  1  0  0  0  0
 38 39  1  0  0  0  0
 39 40  1  0  0  0  0
 39 50  1  0  0  0  0
 40 41  1  0  0  0  0
 40 49  2  0  0  0  0
 42 43  1  0  0  0  0
 43 44  1  0  0  0  0
 43 47  1  0  0  0  0
 43 48  1  0  0  0  0
 44 45  1  0  0  0  0
 44 46  1  0  0  0  0
 50 51  1  0  0  0  0
 55 56  1  0  0  0  0
 56 57  1  0  0  0  0
 56 61  1  0  0  0  0
 57 58  1  0  0  0  0
 58 59  1  0  0  0  0
 58 71  1  0  0  0  0
 59 60  1  0  0  0  0
 60 61  1  0  0  0  0
 63 64  1  0  0  0  0
 64 65  1  0  0  0  0
 67 68  2  0  0  0  0
 67 72  1  0  0  0  0
 68 69  1  0  0  0  0
 69 70  2  0  0  0  0
 70 71  1  0  0  0  0
 71 72  2  0  0  0  0
  1 74  1  0  0  0  0
  1 75  1  0  0  0  0
  1 76  1  0  0  0  0
  2 77  1  0  0  0  0
  4 78  1  0  0  0  0
  4 79  1  0  0  0  0
  4 80  1  0  0  0  0
  7 81  1  0  0  0  0
  8 82  1  0  0  0  0
  9 83  1  0  0  0  0
 13 84  1  0  0  0  0
 13 85  1  0  0  0  0
 14 86  1  0  0  0  0
 14 87  1  0  0  0  0
 14 88  1  0  0  0  0
 16 89  1  0  0  0  0
 16 90  1  0  0  0  0
 18 91  1  0  0  0  0
 18 92  1  0  0  0  0
 18 93  1  0  0  0  0
 19 94  1  0  0  0  0
 19 95  1  0  0  0  0
 19 96  1  0  0  0  0
 20 97  1  0  0  0  0
 20 98  1  0  0  0  0
 23 99  1  0  0  0  0
 24100  1  0  0  0  0
 27101  1  0  0  0  0
 28102  1  0  0  0  0
 30103  1  0  0  0  0
 31104  1  0  0  0  0
 32105  1  0  0  0  0
 32106  1  0  0  0  0
 32107  1  0  0  0  0
 33108  1  0  0  0  0
 33109  1  0  0  0  0
 33110  1  0  0  0  0
 37111  1  0  0  0  0
 37112  1  0  0  0  0
 38113  1  0  0  0  0
 38114  1  0  0  0  0
 45115  1  0  0  0  0
 45116  1  0  0  0  0
 45117  1  0  0  0  0
 46118  1  0  0  0  0
 46119  1  0  0  0  0
 46120  1  0  0  0  0
 47121  1  0  0  0  0
 47122  1  0  0  0  0
 47123  1  0  0  0  0
 48124  1  0  0  0  0
 48125  1  0  0  0  0
 48126  1  0  0  0  0
 50127  1  0  0  0  0
 50128  1  0  0  0  0
 51129  1  0  0  0  0
 51130  1  0  0  0  0
 53131  1  0  0  0  0
 53132  1  0  0  0  0
 53133  1  0  0  0  0
 55134  1  0  0  0  0
 55135  1  0  0  0  0
 56136  1  0  0  0  0
 57137  1  0  0  0  0
 57138  1  0  0  0  0
 59139  1  0  0  0  0
 59140  1  0  0  0  0
 60141  1  0  0  0  0
 60142  1  0  0  0  0
 63143  1  0  0  0  0
 63144  1  0  0  0  0
 64145  1  0  0  0  0
 64146  1  0  0  0  0
 65147  1  0  0  0  0
 65148  1  0  0  0  0
 69149  1  0  0  0  0
 70150  1  0  0  0  0
 72151  1  0  0  0  0
 41 42  3  0  0  0  0
M  END
$$$$
