 energy: -221.280643749947 gnorm: 0.000613555300 xtb: 6.7.1 (edcfbbe)
          08172523303D

151157  0     0  0            999 V2000
    2.2102    7.0643   -8.3559 C   0  0  0  0  0  0  0  0  0  0  0  0
    2.2024    5.6241   -7.8469 C   0  0  0  0  0  0  0  0  0  0  0  0
    3.4657    4.9917   -7.9949 O   0  0  0  0  0  0  0  0  0  0  0  0
    4.3971    5.3083   -6.9945 C   0  0  0  0  0  0  0  0  0  0  0  0
    1.2094    4.7751   -8.6171 C   0  0  0  0  0  0  0  0  0  0  0  0
    0.9051    5.1671   -9.8422 N   0  0  0  0  0  0  0  0  0  0  0  0
    0.0435    4.4636  -10.5525 C   0  0  0  0  0  0  0  0  0  0  0  0
   -0.5861    3.3275  -10.0701 C   0  0  0  0  0  0  0  0  0  0  0  0
   -0.2775    2.9116   -8.7865 C   0  0  0  0  0  0  0  0  0  0  0  0
    0.6499    3.6282   -8.0359 C   0  0  0  0  0  0  0  0  0  0  0  0
    0.9877    3.2241   -6.6632 C   0  0  0  0  0  0  0  0  0  0  0  0
    0.1653    3.5858   -5.6193 N   0  0  0  0  0  0  0  0  0  0  0  0
   -1.0643    4.3248   -5.7206 C   0  0  0  0  0  0  0  0  0  0  0  0
   -2.2883    3.4109   -5.6705 C   0  0  0  0  0  0  0  0  0  0  0  0
    2.0813    2.5358   -6.1944 C   0  0  0  0  0  0  0  0  0  0  0  0
    3.1981    1.9900   -7.0250 C   0  0  0  0  0  0  0  0  0  0  0  0
    3.0616    0.5074   -7.4437 C   0  0  0  0  0  0  0  0  0  0  0  0
    4.0987    0.2087   -8.5292 C   0  0  0  0  0  0  0  0  0  0  0  0
    1.6638    0.2120   -7.9841 C   0  0  0  0  0  0  0  0  0  0  0  0
    3.3114   -0.4132   -6.2449 C   0  0  0  0  0  0  0  0  0  0  0  0
    4.6681   -0.2744   -5.8106 O   0  0  0  0  0  0  0  0  0  0  0  0
    5.0014   -0.8939   -4.6889 C   0  0  0  0  0  0  0  0  0  0  0  0
    6.4479   -0.6257   -4.2998 C   0  0  0  0  0  0  0  0  0  0  0  0
    6.9820   -1.7226   -3.5105 N   0  0  0  0  0  0  0  0  0  0  0  0
    8.1473   -1.3003   -2.8662 N   0  0  0  0  0  0  0  0  0  0  0  0
    8.1970   -0.6276   -1.6926 C   0  0  0  0  0  0  0  0  0  0  0  0
    6.8814   -0.5628   -0.8912 C   0  0  0  0  0  0  0  0  0  0  0  0
    6.9307   -1.5276    0.1834 N   0  0  0  0  0  0  0  0  0  0  0  0
    6.4875   -2.7808    0.0090 C   0  0  0  0  0  0  0  0  0  0  0  0
    6.4682   -3.5812    1.3141 C   0  0  0  0  0  0  0  0  0  0  0  0
    6.5328   -5.0959    1.0891 C   0  0  0  0  0  0  0  0  0  0  0  0
    6.2916   -5.8452    2.3962 C   0  0  0  0  0  0  0  0  0  0  0  0
    7.9076   -5.4390    0.5176 C   0  0  0  0  0  0  0  0  0  0  0  0
    5.2821   -3.1319    2.0469 N   0  0  0  0  0  0  0  0  0  0  0  0
    5.4867   -2.2015    2.9959 C   0  0  0  0  0  0  0  0  0  0  0  0
    4.3328   -1.7262    3.8915 C   0  0  0  0  0  0  0  0  0  0  0  0
    4.2847   -2.6309    5.1295 C   0  0  0  0  0  0  0  0  0  0  0  0
    3.2481   -2.1065    6.1252 C   0  0  0  0  0  0  0  0  0  0  0  0
    3.5153   -0.7269    6.4522 N   0  0  0  0  0  0  0  0  0  0  0  0
    3.8476   -0.3812    7.7206 C   0  0  0  0  0  0  0  0  0  0  0  0
    4.1299    1.0203    7.9237 C   0  0  0  0  0  0  0  0  0  0  0  0
    4.4041    2.1412    8.2657 C   0  0  0  0  0  0  0  0  0  0  0  0
    4.6332    3.5199    8.6889 C   0  0  0  0  0  0  0  0  0  0  0  0
    5.6828    4.1189    7.8574 N   0  0  0  0  0  0  0  0  0  0  0  0
    5.5048    3.9454    6.4331 C   0  0  0  0  0  0  0  0  0  0  0  0
    5.9946    5.4967    8.1670 C   0  0  0  0  0  0  0  0  0  0  0  0
    5.1080    3.4478   10.1506 C   0  0  0  0  0  0  0  0  0  0  0  0
    3.2708    4.2443    8.6180 C   0  0  0  0  0  0  0  0  0  0  0  0
    3.8778   -1.1766    8.6418 O   0  0  0  0  0  0  0  0  0  0  0  0
    3.5138    0.1642    5.3206 C   0  0  0  0  0  0  0  0  0  0  0  0
    4.5691   -0.2706    4.3025 C   0  0  0  0  0  0  0  0  0  0  0  0
    6.6064   -1.7831    3.2636 O   0  0  0  0  0  0  0  0  0  0  0  0
    3.9955   -3.4639    1.4705 C   0  0  0  0  0  0  0  0  0  0  0  0
    6.0793   -3.2084   -1.0559 O   0  0  0  0  0  0  0  0  0  0  0  0
    6.6551    0.8554   -0.3640 C   0  0  0  0  0  0  0  0  0  0  0  0
    5.1729    1.2071   -0.2100 C   0  0  0  0  0  0  0  0  0  0  0  0
    4.4474    1.2916   -1.5637 C   0  0  0  0  0  0  0  0  0  0  0  0
    3.0618    1.6391   -1.3319 N   0  0  0  0  0  0  0  0  0  0  0  0
    2.4435    0.6255   -0.4940 C   0  0  0  0  0  0  0  0  0  0  0  0
    3.1974    0.5685    0.8320 C   0  0  0  0  0  0  0  0  0  0  0  0
    4.5582    0.2549    0.6368 O   0  0  0  0  0  0  0  0  0  0  0  0
    9.2303   -0.1529   -1.2590 O   0  0  0  0  0  0  0  0  0  0  0  0
    9.2153   -1.1699   -3.8408 C   0  0  0  0  0  0  0  0  0  0  0  0
    8.8127   -0.1210   -4.8856 C   0  0  0  0  0  0  0  0  0  0  0  0
    7.4262   -0.4280   -5.4620 C   0  0  0  0  0  0  0  0  0  0  0  0
    4.2425   -1.5327   -4.0063 O   0  0  0  0  0  0  0  0  0  0  0  0
    1.9390    2.4801   -4.7732 C   0  0  0  0  0  0  0  0  0  0  0  0
    0.7256    3.1340   -4.4562 C   0  0  0  0  0  0  0  0  0  0  0  0
    0.2950    3.2577   -3.1406 C   0  0  0  0  0  0  0  0  0  0  0  0
    1.0877    2.7308   -2.1502 C   0  0  0  0  0  0  0  0  0  0  0  0
    2.3054    2.0830   -2.4344 C   0  0  0  0  0  0  0  0  0  0  0  0
    2.7330    1.9652   -3.7455 C   0  0  0  0  0  0  0  0  0  0  0  0
    3.0892   -1.7834    3.2687 F   0  0  0  0  0  0  0  0  0  0  0  0
    2.9100    7.6674   -7.7830 H   0  0  0  0  0  0  0  0  0  0  0  0
    2.4975    7.0710   -9.4024 H   0  0  0  0  0  0  0  0  0  0  0  0
    1.2163    7.4919   -8.2604 H   0  0  0  0  0  0  0  0  0  0  0  0
    1.9222    5.6081   -6.7792 H   0  0  0  0  0  0  0  0  0  0  0  0
    4.0112    5.0500   -5.9999 H   0  0  0  0  0  0  0  0  0  0  0  0
    5.2821    4.7110   -7.2055 H   0  0  0  0  0  0  0  0  0  0  0  0
    4.6711    6.3688   -7.0054 H   0  0  0  0  0  0  0  0  0  0  0  0
   -0.1555    4.8394  -11.5475 H   0  0  0  0  0  0  0  0  0  0  0  0
   -1.2979    2.7876  -10.6749 H   0  0  0  0  0  0  0  0  0  0  0  0
   -0.7486    2.0352   -8.3645 H   0  0  0  0  0  0  0  0  0  0  0  0
   -1.1062    5.0414   -4.8938 H   0  0  0  0  0  0  0  0  0  0  0  0
   -1.0554    4.8850   -6.6602 H   0  0  0  0  0  0  0  0  0  0  0  0
   -2.2826    2.8238   -4.7555 H   0  0  0  0  0  0  0  0  0  0  0  0
   -3.1976    4.0051   -5.7015 H   0  0  0  0  0  0  0  0  0  0  0  0
   -2.2892    2.7301   -6.5177 H   0  0  0  0  0  0  0  0  0  0  0  0
    3.2711    2.5944   -7.9309 H   0  0  0  0  0  0  0  0  0  0  0  0
    4.1358    2.0948   -6.4752 H   0  0  0  0  0  0  0  0  0  0  0  0
    5.0998    0.4275   -8.1683 H   0  0  0  0  0  0  0  0  0  0  0  0
    4.0583   -0.8398   -8.8166 H   0  0  0  0  0  0  0  0  0  0  0  0
    3.9060    0.8164   -9.4098 H   0  0  0  0  0  0  0  0  0  0  0  0
    0.9138    0.3744   -7.2138 H   0  0  0  0  0  0  0  0  0  0  0  0
    1.4503    0.8634   -8.8272 H   0  0  0  0  0  0  0  0  0  0  0  0
    1.5958   -0.8208   -8.3191 H   0  0  0  0  0  0  0  0  0  0  0  0
    2.6413   -0.1687   -5.4146 H   0  0  0  0  0  0  0  0  0  0  0  0
    3.1449   -1.4608   -6.5193 H   0  0  0  0  0  0  0  0  0  0  0  0
    6.4156    0.3174   -3.7127 H   0  0  0  0  0  0  0  0  0  0  0  0
    6.3265   -2.1927   -2.8879 H   0  0  0  0  0  0  0  0  0  0  0  0
    6.0400   -0.8635   -1.5193 H   0  0  0  0  0  0  0  0  0  0  0  0
    7.2499   -1.2231    1.0920 H   0  0  0  0  0  0  0  0  0  0  0  0
    7.3264   -3.2864    1.9269 H   0  0  0  0  0  0  0  0  0  0  0  0
    5.7829   -5.3907    0.3494 H   0  0  0  0  0  0  0  0  0  0  0  0
    5.2911   -5.6605    2.7781 H   0  0  0  0  0  0  0  0  0  0  0  0
    6.4058   -6.9150    2.2402 H   0  0  0  0  0  0  0  0  0  0  0  0
    7.0106   -5.5283    3.1489 H   0  0  0  0  0  0  0  0  0  0  0  0
    7.9789   -6.5076    0.3307 H   0  0  0  0  0  0  0  0  0  0  0  0
    8.0685   -4.9152   -0.4210 H   0  0  0  0  0  0  0  0  0  0  0  0
    8.6944   -5.1571    1.2143 H   0  0  0  0  0  0  0  0  0  0  0  0
    4.0287   -3.6493    4.8329 H   0  0  0  0  0  0  0  0  0  0  0  0
    5.2757   -2.6360    5.5842 H   0  0  0  0  0  0  0  0  0  0  0  0
    2.2464   -2.1835    5.6856 H   0  0  0  0  0  0  0  0  0  0  0  0
    3.2819   -2.6820    7.0524 H   0  0  0  0  0  0  0  0  0  0  0  0
    6.4198    4.2642    5.9339 H   0  0  0  0  0  0  0  0  0  0  0  0
    5.3425    2.8930    6.2105 H   0  0  0  0  0  0  0  0  0  0  0  0
    4.6689    4.5321    6.0189 H   0  0  0  0  0  0  0  0  0  0  0  0
    6.1609    5.6173    9.2334 H   0  0  0  0  0  0  0  0  0  0  0  0
    6.9191    5.7567    7.6504 H   0  0  0  0  0  0  0  0  0  0  0  0
    5.2156    6.2044    7.8431 H   0  0  0  0  0  0  0  0  0  0  0  0
    6.1413    3.1132   10.1800 H   0  0  0  0  0  0  0  0  0  0  0  0
    5.0276    4.4146   10.6408 H   0  0  0  0  0  0  0  0  0  0  0  0
    4.4948    2.7355   10.6972 H   0  0  0  0  0  0  0  0  0  0  0  0
    2.5405    3.7061    9.2167 H   0  0  0  0  0  0  0  0  0  0  0  0
    3.3614    5.2561    9.0055 H   0  0  0  0  0  0  0  0  0  0  0  0
    2.9101    4.2861    7.5925 H   0  0  0  0  0  0  0  0  0  0  0  0
    2.5230    0.1346    4.8490 H   0  0  0  0  0  0  0  0  0  0  0  0
    3.7097    1.1818    5.6618 H   0  0  0  0  0  0  0  0  0  0  0  0
    5.5693   -0.1973    4.7285 H   0  0  0  0  0  0  0  0  0  0  0  0
    4.5226    0.3591    3.4133 H   0  0  0  0  0  0  0  0  0  0  0  0
    3.3369   -3.9229    2.2079 H   0  0  0  0  0  0  0  0  0  0  0  0
    3.5111   -2.5758    1.0634 H   0  0  0  0  0  0  0  0  0  0  0  0
    4.1510   -4.1616    0.6537 H   0  0  0  0  0  0  0  0  0  0  0  0
    7.1520    0.9538    0.6021 H   0  0  0  0  0  0  0  0  0  0  0  0
    7.1131    1.5759   -1.0439 H   0  0  0  0  0  0  0  0  0  0  0  0
    5.0935    2.2019    0.2648 H   0  0  0  0  0  0  0  0  0  0  0  0
    4.9148    2.0759   -2.1632 H   0  0  0  0  0  0  0  0  0  0  0  0
    4.5256    0.3266   -2.0889 H   0  0  0  0  0  0  0  0  0  0  0  0
    1.3983    0.8737   -0.3152 H   0  0  0  0  0  0  0  0  0  0  0  0
    2.4949   -0.3640   -0.9798 H   0  0  0  0  0  0  0  0  0  0  0  0
    3.1119    1.5444    1.3362 H   0  0  0  0  0  0  0  0  0  0  0  0
    2.7874   -0.2107    1.4747 H   0  0  0  0  0  0  0  0  0  0  0  0
   10.1228   -0.8736   -3.3154 H   0  0  0  0  0  0  0  0  0  0  0  0
    9.3535   -2.1449   -4.3119 H   0  0  0  0  0  0  0  0  0  0  0  0
    8.7968    0.8609   -4.4062 H   0  0  0  0  0  0  0  0  0  0  0  0
    9.5544   -0.0970   -5.6840 H   0  0  0  0  0  0  0  0  0  0  0  0
    7.4617   -1.3506   -6.0420 H   0  0  0  0  0  0  0  0  0  0  0  0
    7.0944    0.3830   -6.1098 H   0  0  0  0  0  0  0  0  0  0  0  0
   -0.6267    3.7630   -2.8936 H   0  0  0  0  0  0  0  0  0  0  0  0
    0.7873    2.8352   -1.1190 H   0  0  0  0  0  0  0  0  0  0  0  0
    3.6697    1.4888   -3.9861 H   0  0  0  0  0  0  0  0  0  0  0  0
  1  2  1  0  0  0  0
  2  3  1  0  0  0  0
  2  5  1  0  0  0  0
  3  4  1  0  0  0  0
  5  6  2  0  0  0  0
  5 10  1  0  0  0  0
  6  7  1  0  0  0  0
  7  8  2  0  0  0  0
  8  9  1  0  0  0  0
  9 10  2  0  0  0  0
 10 11  1  0  0  0  0
 11 12  1  0  0  0  0
 11 15  2  0  0  0  0
 12 13  1  0  0  0  0
 12 68  1  0  0  0  0
 13 14  1  0  0  0  0
 15 16  1  0  0  0  0
 15 67  1  0  0  0  0
 16 17  1  0  0  0  0
 17 18  1  0  0  0  0
 17 19  1  0  0  0  0
 17 20  1  0  0  0  0
 20 21  1  0  0  0  0
 21 22  1  0  0  0  0
 22 23  1  0  0  0  0
 22 66  2  0  0  0  0
 23 24  1  0  0  0  0
 23 65  1  0  0  0  0
 24 25  1  0  0  0  0
 25 26  1  0  0  0  0
 25 63  1  0  0  0  0
 26 27  1  0  0  0  0
 26 62  2  0  0  0  0
 27 28  1  0  0  0  0
 27 55  1  0  0  0  0
 28 29  1  0  0  0  0
 29 30  1  0  0  0  0
 29 54  2  0  0  0  0
 30 31  1  0  0  0  0
 30 34  1  0  0  0  0
 31 32  1  0  0  0  0
 31 33  1  0  0  0  0
 34 35  1  0  0  0  0
 34 53  1  0  0  0  0
 35 36  1  0  0  0  0
 35 52  2  0  0  0  0
 36 37  1  0  0  0  0
 36 51  1  0  0  0  0
 36 73  1  0  0  0  0
 37 38  1  0  0  0  0
 38 39  1  0  0  0  0
 39 40  1  0  0  0  0
 39 50  1  0  0  0  0
 40 41  1  0  0  0  0
 40 49  2  0  0  0  0
 42 43  1  0  0  0  0
 43 44  1  0  0  0  0
 43 47  1  0  0  0  0
 43 48  1  0  0  0  0
 44 45  1  0  0  0  0
 44 46  1  0  0  0  0
 50 51  1  0  0  0  0
 55 56  1  0  0  0  0
 56 57  1  0  0  0  0
 56 61  1  0  0  0  0
 57 58  1  0  0  0  0
 58 59  1  0  0  0  0
 58 71  1  0  0  0  0
 59 60  1  0  0  0  0
 60 61  1  0  0  0  0
 63 64  1  0  0  0  0
 64 65  1  0  0  0  0
 67 68  2  0  0  0  0
 67 72  1  0  0  0  0
 68 69  1  0  0  0  0
 69 70  2  0  0  0  0
 70 71  1  0  0  0  0
 71 72  2  0  0  0  0
  1 74  1  0  0  0  0
  1 75  1  0  0  0  0
  1 76  1  0  0  0  0
  2 77  1  0  0  0  0
  4 78  1  0  0  0  0
  4 79  1  0  0  0  0
  4 80  1  0  0  0  0
  7 81  1  0  0  0  0
  8 82  1  0  0  0  0
  9 83  1  0  0  0  0
 13 84  1  0  0  0  0
 13 85  1  0  0  0  0
 14 86  1  0  0  0  0
 14 87  1  0  0  0  0
 14 88  1  0  0  0  0
 16 89  1  0  0  0  0
 16 90  1  0  0  0  0
 18 91  1  0  0  0  0
 18 92  1  0  0  0  0
 18 93  1  0  0  0  0
 19 94  1  0  0  0  0
 19 95  1  0  0  0  0
 19 96  1  0  0  0  0
 20 97  1  0  0  0  0
 20 98  1  0  0  0  0
 23 99  1  0  0  0  0
 24100  1  0  0  0  0
 27101  1  0  0  0  0
 28102  1  0  0  0  0
 30103  1  0  0  0  0
 31104  1  0  0  0  0
 32105  1  0  0  0  0
 32106  1  0  0  0  0
 32107  1  0  0  0  0
 33108  1  0  0  0  0
 33109  1  0  0  0  0
 33110  1  0  0  0  0
 37111  1  0  0  0  0
 37112  1  0  0  0  0
 38113  1  0  0  0  0
 38114  1  0  0  0  0
 45115  1  0  0  0  0
 45116  1  0  0  0  0
 45117  1  0  0  0  0
 46118  1  0  0  0  0
 46119  1  0  0  0  0
 46120  1  0  0  0  0
 47121  1  0  0  0  0
 47122  1  0  0  0  0
 47123  1  0  0  0  0
 48124  1  0  0  0  0
 48125  1  0  0  0  0
 48126  1  0  0  0  0
 50127  1  0  0  0  0
 50128  1  0  0  0  0
 51129  1  0  0  0  0
 51130  1  0  0  0  0
 53131  1  0  0  0  0
 53132  1  0  0  0  0
 53133  1  0  0  0  0
 55134  1  0  0  0  0
 55135  1  0  0  0  0
 56136  1  0  0  0  0
 57137  1  0  0  0  0
 57138  1  0  0  0  0
 59139  1  0  0  0  0
 59140  1  0  0  0  0
 60141  1  0  0  0  0
 60142  1  0  0  0  0
 63143  1  0  0  0  0
 63144  1  0  0  0  0
 64145  1  0  0  0  0
 64146  1  0  0  0  0
 65147  1  0  0  0  0
 65148  1  0  0  0  0
 69149  1  0  0  0  0
 70150  1  0  0  0  0
 72151  1  0  0  0  0
 41 42  3  0  0  0  0
M  END
$$$$
