mol_ETKDG5_29
     RDKit          3D

151157  0  0  0  0  0  0  0  0999 V2000
    2.4499    7.6925   -7.7012 C   0  0  0  0  0  0  0  0  0  0  0  0
    2.3821    6.1663   -7.5728 C   0  0  2  0  0  0  0  0  0  0  0  0
    3.6347    5.5568   -7.9376 O   0  0  0  0  0  0  0  0  0  0  0  0
    3.9557    5.5983   -9.3222 C   0  0  0  0  0  0  0  0  0  0  0  0
    1.1639    5.5677   -8.2735 C   0  0  0  0  0  0  0  0  0  0  0  0
    0.8344    6.1132   -9.4841 N   0  0  0  0  0  0  0  0  0  0  0  0
   -0.2393    5.6187  -10.1362 C   0  0  0  0  0  0  0  0  0  0  0  0
   -1.0233    4.5921   -9.6494 C   0  0  0  0  0  0  0  0  0  0  0  0
   -0.6840    4.0347   -8.4223 C   0  0  0  0  0  0  0  0  0  0  0  0
    0.4262    4.5100   -7.7108 C   0  0  0  0  0  0  0  0  0  0  0  0
    0.7389    3.9181   -6.4034 C   0  0  0  0  0  0  0  0  0  0  0  0
    0.0686    4.2526   -5.2431 N   0  0  0  0  0  0  0  0  0  0  0  0
   -1.0413    5.1935   -5.1365 C   0  0  0  0  0  0  0  0  0  0  0  0
   -2.3873    4.4953   -5.0456 C   0  0  0  0  0  0  0  0  0  0  0  0
    1.7396    3.0053   -6.0612 C   0  0  0  0  0  0  0  0  0  0  0  0
    2.7093    2.3544   -7.0212 C   0  0  0  0  0  0  0  0  0  0  0  0
    2.3419    0.9292   -7.5381 C   0  0  0  0  0  0  0  0  0  0  0  0
    3.2801    0.6134   -8.7270 C   0  0  0  0  0  0  0  0  0  0  0  0
    0.8959    0.8424   -8.0492 C   0  0  0  0  0  0  0  0  0  0  0  0
    2.5456   -0.1459   -6.4478 C   0  0  0  0  0  0  0  0  0  0  0  0
    3.9303   -0.1769   -6.0706 O   0  0  0  0  0  0  0  0  0  0  0  0
    4.2375   -1.0155   -5.0436 C   0  0  0  0  0  0  0  0  0  0  0  0
    5.7225   -0.8854   -4.6950 C   0  0  1  0  0  0  0  0  0  0  0  0
    6.0853   -1.9056   -3.7019 N   0  0  0  0  0  0  0  0  0  0  0  0
    7.4056   -1.7156   -3.2488 N   0  0  0  0  0  0  0  0  0  0  0  0
    7.7846   -1.5060   -1.9191 C   0  0  0  0  0  0  0  0  0  0  0  0
    6.6727   -1.1832   -0.8850 C   0  0  1  0  0  0  0  0  0  0  0  0
    6.9684   -1.8592    0.3786 N   0  0  0  0  0  0  0  0  0  0  0  0
    6.8924   -3.2382    0.4309 C   0  0  0  0  0  0  0  0  0  0  0  0
    7.0137   -3.8184    1.8547 C   0  0  2  0  0  0  0  0  0  0  0  0
    7.6017   -5.2540    1.8528 C   0  0  0  0  0  0  0  0  0  0  0  0
    7.5682   -5.8783    3.2533 C   0  0  0  0  0  0  0  0  0  0  0  0
    9.0542   -5.2417    1.3520 C   0  0  0  0  0  0  0  0  0  0  0  0
    5.6821   -3.7221    2.5117 N   0  0  0  0  0  0  0  0  0  0  0  0
    5.4474   -2.5888    3.2963 C   0  0  0  0  0  0  0  0  0  0  0  0
    4.1965   -2.5574    4.2063 C   0  0  0  0  0  0  0  0  0  0  0  0
    4.2101   -3.7607    5.1700 C   0  0  0  0  0  0  0  0  0  0  0  0
    3.0578   -3.6693    6.1627 C   0  0  0  0  0  0  0  0  0  0  0  0
    3.1447   -2.4059    6.8732 N   0  0  0  0  0  0  0  0  0  0  0  0
    3.6764   -2.4088    8.1604 C   0  0  0  0  0  0  0  0  0  0  0  0
    4.0940   -1.1523    8.7399 C   0  0  0  0  0  0  0  0  0  0  0  0
    4.5204   -0.1304    9.2100 C   0  0  0  0  0  0  0  0  0  0  0  0
    5.1139    1.1069    9.7797 C   0  0  0  0  0  0  0  0  0  0  0  0
    6.4845    1.2584    9.2252 N   0  0  0  0  0  0  0  0  0  0  0  0
    6.5349    1.5263    7.7854 C   0  0  0  0  0  0  0  0  0  0  0  0
    7.3435    2.2078    9.9323 C   0  0  0  0  0  0  0  0  0  0  0  0
    5.1361    0.9138   11.3159 C   0  0  0  0  0  0  0  0  0  0  0  0
    4.1826    2.2932    9.4634 C   0  0  0  0  0  0  0  0  0  0  0  0
    3.8442   -3.4274    8.8214 O   0  0  0  0  0  0  0  0  0  0  0  0
    3.0422   -1.2257    6.0226 C   0  0  0  0  0  0  0  0  0  0  0  0
    4.1613   -1.2297    4.9900 C   0  0  0  0  0  0  0  0  0  0  0  0
    6.2532   -1.6525    3.2916 O   0  0  0  0  0  0  0  0  0  0  0  0
    4.5790   -4.4538    1.8848 C   0  0  0  0  0  0  0  0  0  0  0  0
    6.6698   -3.9286   -0.5608 O   0  0  0  0  0  0  0  0  0  0  0  0
    6.6362    0.3466   -0.7011 C   0  0  0  0  0  0  0  0  0  0  0  0
    5.2452    0.9138   -0.3898 C   0  0  1  0  0  0  0  0  0  0  0  0
    4.4110    1.1357   -1.6799 C   0  0  0  0  0  0  0  0  0  0  0  0
    3.0836    1.6662   -1.3176 N   0  0  0  0  0  0  0  0  0  0  0  0
    2.3851    0.7772   -0.3577 C   0  0  0  0  0  0  0  0  0  0  0  0
    3.2757    0.5632    0.8784 C   0  0  0  0  0  0  0  0  0  0  0  0
    4.5668    0.0367    0.5297 O   0  0  0  0  0  0  0  0  0  0  0  0
    8.9751   -1.4744   -1.5848 O   0  0  0  0  0  0  0  0  0  0  0  0
    8.4127   -1.9370   -4.2920 C   0  0  0  0  0  0  0  0  0  0  0  0
    8.1217   -1.0305   -5.4941 C   0  0  0  0  0  0  0  0  0  0  0  0
    6.6423   -1.0802   -5.9093 C   0  0  0  0  0  0  0  0  0  0  0  0
    3.4252   -1.6841   -4.4199 O   0  0  0  0  0  0  0  0  0  0  0  0
    1.7270    2.8851   -4.6273 C   0  0  0  0  0  0  0  0  0  0  0  0
    0.6587    3.6423   -4.1550 C   0  0  0  0  0  0  0  0  0  0  0  0
    0.3559    3.7211   -2.7895 C   0  0  0  0  0  0  0  0  0  0  0  0
    1.1767    3.0355   -1.8892 C   0  0  0  0  0  0  0  0  0  0  0  0
    2.2767    2.2689   -2.2918 C   0  0  0  0  0  0  0  0  0  0  0  0
    2.5424    2.2134   -3.6750 C   0  0  0  0  0  0  0  0  0  0  0  0
    3.0428   -2.6118    3.4665 F   0  0  0  0  0  0  0  0  0  0  0  0
    3.3051    8.0835   -7.1403 H   0  0  0  0  0  0  0  0  0  0  0  0
    2.5778    8.0216   -8.7382 H   0  0  0  0  0  0  0  0  0  0  0  0
    1.5369    8.1601   -7.3156 H   0  0  0  0  0  0  0  0  0  0  0  0
    2.2872    5.9863   -6.4964 H   0  0  0  0  0  0  0  0  0  0  0  0
    3.9283    6.6148   -9.7215 H   0  0  0  0  0  0  0  0  0  0  0  0
    4.9766    5.2208   -9.4359 H   0  0  0  0  0  0  0  0  0  0  0  0
    3.2965    4.9399   -9.8932 H   0  0  0  0  0  0  0  0  0  0  0  0
   -0.4587    6.0872  -11.0901 H   0  0  0  0  0  0  0  0  0  0  0  0
   -1.8778    4.2311  -10.2118 H   0  0  0  0  0  0  0  0  0  0  0  0
   -1.2829    3.2198   -8.0212 H   0  0  0  0  0  0  0  0  0  0  0  0
   -0.8682    5.8136   -4.2518 H   0  0  0  0  0  0  0  0  0  0  0  0
   -1.0225    5.8688   -5.9944 H   0  0  0  0  0  0  0  0  0  0  0  0
   -2.4249    3.7976   -4.2023 H   0  0  0  0  0  0  0  0  0  0  0  0
   -3.1876    5.2322   -4.9120 H   0  0  0  0  0  0  0  0  0  0  0  0
   -2.6024    3.9235   -5.9556 H   0  0  0  0  0  0  0  0  0  0  0  0
    2.8189    3.0135   -7.8929 H   0  0  0  0  0  0  0  0  0  0  0  0
    3.7049    2.3409   -6.5568 H   0  0  0  0  0  0  0  0  0  0  0  0
    4.3351    0.6907   -8.4426 H   0  0  0  0  0  0  0  0  0  0  0  0
    3.1089   -0.4014   -9.1034 H   0  0  0  0  0  0  0  0  0  0  0  0
    3.1129    1.3080   -9.5581 H   0  0  0  0  0  0  0  0  0  0  0  0
    0.1674    1.0154   -7.2492 H   0  0  0  0  0  0  0  0  0  0  0  0
    0.7158    1.5678   -8.8491 H   0  0  0  0  0  0  0  0  0  0  0  0
    0.6852   -0.1500   -8.4638 H   0  0  0  0  0  0  0  0  0  0  0  0
    1.9222    0.0624   -5.5732 H   0  0  0  0  0  0  0  0  0  0  0  0
    2.2700   -1.1350   -6.8341 H   0  0  0  0  0  0  0  0  0  0  0  0
    5.8561    0.1132   -4.2616 H   0  0  0  0  0  0  0  0  0  0  0  0
    5.3767   -2.0343   -2.9803 H   0  0  0  0  0  0  0  0  0  0  0  0
    5.7032   -1.5594   -1.2095 H   0  0  0  0  0  0  0  0  0  0  0  0
    6.7046   -1.3828    1.2407 H   0  0  0  0  0  0  0  0  0  0  0  0
    7.7222   -3.1872    2.4083 H   0  0  0  0  0  0  0  0  0  0  0  0
    7.0263   -5.9015    1.1788 H   0  0  0  0  0  0  0  0  0  0  0  0
    6.5414   -6.0171    3.6049 H   0  0  0  0  0  0  0  0  0  0  0  0
    8.0453   -6.8649    3.2508 H   0  0  0  0  0  0  0  0  0  0  0  0
    8.0949   -5.2499    3.9805 H   0  0  0  0  0  0  0  0  0  0  0  0
    9.4748   -6.2530    1.3629 H   0  0  0  0  0  0  0  0  0  0  0  0
    9.1190   -4.8692    0.3255 H   0  0  0  0  0  0  0  0  0  0  0  0
    9.6860   -4.6086    1.9845 H   0  0  0  0  0  0  0  0  0  0  0  0
    4.1232   -4.7096    4.6336 H   0  0  0  0  0  0  0  0  0  0  0  0
    5.1669   -3.7890    5.7085 H   0  0  0  0  0  0  0  0  0  0  0  0
    2.0914   -3.7077    5.6477 H   0  0  0  0  0  0  0  0  0  0  0  0
    3.0951   -4.5170    6.8545 H   0  0  0  0  0  0  0  0  0  0  0  0
    6.1720    2.5276    7.5327 H   0  0  0  0  0  0  0  0  0  0  0  0
    7.5654    1.4431    7.4214 H   0  0  0  0  0  0  0  0  0  0  0  0
    5.9586    0.7943    7.2119 H   0  0  0  0  0  0  0  0  0  0  0  0
    7.5308    1.8901   10.9655 H   0  0  0  0  0  0  0  0  0  0  0  0
    8.3350    2.2504    9.4638 H   0  0  0  0  0  0  0  0  0  0  0  0
    6.9326    3.2242    9.9426 H   0  0  0  0  0  0  0  0  0  0  0  0
    4.1447    0.6318   11.6934 H   0  0  0  0  0  0  0  0  0  0  0  0
    5.8256    0.1119   11.6103 H   0  0  0  0  0  0  0  0  0  0  0  0
    5.4306    1.8287   11.8439 H   0  0  0  0  0  0  0  0  0  0  0  0
    3.1830    2.1276    9.8850 H   0  0  0  0  0  0  0  0  0  0  0  0
    4.5622    3.2314    9.8825 H   0  0  0  0  0  0  0  0  0  0  0  0
    4.0424    2.4325    8.3860 H   0  0  0  0  0  0  0  0  0  0  0  0
    2.0632   -1.2579    5.5294 H   0  0  0  0  0  0  0  0  0  0  0  0
    3.0736   -0.3043    6.6103 H   0  0  0  0  0  0  0  0  0  0  0  0
    5.1188   -1.0703    5.5009 H   0  0  0  0  0  0  0  0  0  0  0  0
    4.0126   -0.3925    4.2996 H   0  0  0  0  0  0  0  0  0  0  0  0
    3.6950   -4.4974    2.5186 H   0  0  0  0  0  0  0  0  0  0  0  0
    4.2987   -3.9451    0.9586 H   0  0  0  0  0  0  0  0  0  0  0  0
    4.8810   -5.4801    1.6674 H   0  0  0  0  0  0  0  0  0  0  0  0
    7.3033    0.6139    0.1299 H   0  0  0  0  0  0  0  0  0  0  0  0
    7.0386    0.8631   -1.5821 H   0  0  0  0  0  0  0  0  0  0  0  0
    5.3794    1.8846    0.1051 H   0  0  0  0  0  0  0  0  0  0  0  0
    4.9478    1.8403   -2.3267 H   0  0  0  0  0  0  0  0  0  0  0  0
    4.2833    0.1871   -2.2134 H   0  0  0  0  0  0  0  0  0  0  0  0
    1.4259    1.1810   -0.0203 H   0  0  0  0  0  0  0  0  0  0  0  0
    2.1954   -0.1874   -0.8453 H   0  0  0  0  0  0  0  0  0  0  0  0
    3.4144    1.5032    1.4264 H   0  0  0  0  0  0  0  0  0  0  0  0
    2.8012   -0.1524    1.5571 H   0  0  0  0  0  0  0  0  0  0  0  0
    9.4216   -1.7449   -3.9154 H   0  0  0  0  0  0  0  0  0  0  0  0
    8.3627   -2.9928   -4.5843 H   0  0  0  0  0  0  0  0  0  0  0  0
    8.3719    0.0043   -5.2255 H   0  0  0  0  0  0  0  0  0  0  0  0
    8.7614   -1.3072   -6.3400 H   0  0  0  0  0  0  0  0  0  0  0  0
    6.4293   -2.0432   -6.3906 H   0  0  0  0  0  0  0  0  0  0  0  0
    6.4550   -0.3086   -6.6654 H   0  0  0  0  0  0  0  0  0  0  0  0
   -0.4706    4.3180   -2.4212 H   0  0  0  0  0  0  0  0  0  0  0  0
    0.9629    3.1559   -0.8302 H   0  0  0  0  0  0  0  0  0  0  0  0
    3.3877    1.6513   -4.0487 H   0  0  0  0  0  0  0  0  0  0  0  0
  1  2  1  0
  2  3  1  0
  2  5  1  0
  3  4  1  0
  5  6  2  0
  5 10  1  0
  6  7  1  0
  7  8  2  0
  8  9  1  0
  9 10  2  0
 10 11  1  0
 11 12  1  0
 11 15  2  0
 12 13  1  0
 12 68  1  0
 13 14  1  0
 15 16  1  0
 15 67  1  0
 16 17  1  0
 17 18  1  0
 17 19  1  0
 17 20  1  0
 20 21  1  0
 21 22  1  0
 22 23  1  0
 22 66  2  0
 23 24  1  0
 23 65  1  0
 24 25  1  0
 25 26  1  0
 25 63  1  0
 26 27  1  0
 26 62  2  0
 27 28  1  0
 27 55  1  0
 28 29  1  0
 29 30  1  0
 29 54  2  0
 30 31  1  0
 30 34  1  0
 31 32  1  0
 31 33  1  0
 34 35  1  0
 34 53  1  0
 35 36  1  0
 35 52  2  0
 36 37  1  0
 36 51  1  0
 36 73  1  0
 37 38  1  0
 38 39  1  0
 39 40  1  0
 39 50  1  0
 40 41  1  0
 40 49  2  0
 42 43  1  0
 43 44  1  0
 43 47  1  0
 43 48  1  0
 44 45  1  0
 44 46  1  0
 50 51  1  0
 55 56  1  0
 56 57  1  0
 56 61  1  0
 57 58  1  0
 58 59  1  0
 58 71  1  0
 59 60  1  0
 60 61  1  0
 63 64  1  0
 64 65  1  0
 67 68  2  0
 67 72  1  0
 68 69  1  0
 69 70  2  0
 70 71  1  0
 71 72  2  0
  1 74  1  0
  1 75  1  0
  1 76  1  0
  2 77  1  1
  4 78  1  0
  4 79  1  0
  4 80  1  0
  7 81  1  0
  8 82  1  0
  9 83  1  0
 13 84  1  0
 13 85  1  0
 14 86  1  0
 14 87  1  0
 14 88  1  0
 16 89  1  0
 16 90  1  0
 18 91  1  0
 18 92  1  0
 18 93  1  0
 19 94  1  0
 19 95  1  0
 19 96  1  0
 20 97  1  0
 20 98  1  0
 23 99  1  1
 24100  1  0
 27101  1  6
 28102  1  0
 30103  1  1
 31104  1  0
 32105  1  0
 32106  1  0
 32107  1  0
 33108  1  0
 33109  1  0
 33110  1  0
 37111  1  0
 37112  1  0
 38113  1  0
 38114  1  0
 45115  1  0
 45116  1  0
 45117  1  0
 46118  1  0
 46119  1  0
 46120  1  0
 47121  1  0
 47122  1  0
 47123  1  0
 48124  1  0
 48125  1  0
 48126  1  0
 50127  1  0
 50128  1  0
 51129  1  0
 51130  1  0
 53131  1  0
 53132  1  0
 53133  1  0
 55134  1  0
 55135  1  0
 56136  1  1
 57137  1  0
 57138  1  0
 59139  1  0
 59140  1  0
 60141  1  0
 60142  1  0
 63143  1  0
 63144  1  0
 64145  1  0
 64146  1  0
 65147  1  0
 65148  1  0
 69149  1  0
 70150  1  0
 72151  1  0
 41 42  3  0
M  END
$$$$
