bioactive
  PyMOL3.1          3D                             0

 73 79  0  0  0  0  0  0  0  0999 V2000
   15.9520   32.8600   61.7120 C   0  0  0  0  0  0  0  0  0  0  0  0
   16.3560   33.7350   59.4600 N   0  0  0  0  0  0  0  0  0  0  0  0
   19.6900   34.3820   59.2270 O   0  0  0  0  0  0  0  0  0  0  0  0
   15.8860   32.5740   60.2250 C   0  0  0  0  0  0  0  0  0  0  0  0
   17.5840   34.0730   59.8330 N   0  0  0  0  0  0  0  0  0  0  0  0
   21.1280   29.3360   50.1430 O   0  0  0  0  0  0  0  0  0  0  0  0
   17.7910   34.4680   61.2110 C   0  0  0  0  0  0  0  0  0  0  0  0
   19.0850   34.3130   56.5820 N   0  0  0  0  0  0  0  0  0  0  0  0
   20.7500   33.6080   53.8300 O   0  0  0  0  0  0  0  0  0  0  0  0
   17.3540   33.3030   62.0880 C   0  0  0  0  0  0  0  0  0  0  0  0
   19.2560   35.2010   53.4860 N   0  0  0  0  0  0  0  0  0  0  0  0
   17.5950   35.8370   55.9290 O   0  0  0  0  0  0  0  0  0  0  0  0
   18.5590   34.0600   58.9370 C   0  0  0  0  0  0  0  0  0  0  0  0
   20.0890   31.3110   50.0900 N   0  0  0  0  0  0  0  0  0  0  0  0
   17.1020   32.4790   55.4290 O   0  0  0  0  0  0  0  0  0  0  0  0
   18.2380   33.6320   57.5340 C   0  0  0  0  0  0  0  0  0  0  0  0
   23.9740   29.5320   46.0620 N   0  0  0  0  0  0  0  0  0  0  0  0
    7.7280   26.5150   58.4180 O   0  0  0  0  0  0  0  0  0  0  0  0
   18.6830   35.3180   55.8260 C   0  0  0  0  0  0  0  0  0  0  0  0
   15.3860   30.3950   55.9800 N   0  0  0  0  0  0  0  0  0  0  0  0
   13.9150   31.1010   60.4650 O   0  0  0  0  0  0  0  0  0  0  0  0
   19.6860   35.7390   54.7800 C   0  0  0  0  0  0  0  0  0  0  0  0
   11.5110   26.7820   57.5520 N   0  0  0  0  0  0  0  0  0  0  0  0
   13.7740   33.0140   59.2250 O   0  0  0  0  0  0  0  0  0  0  0  0
   19.8600   34.0710   53.1570 C   0  0  0  0  0  0  0  0  0  0  0  0
    8.7050   25.6420   61.0230 N   0  0  0  0  0  0  0  0  0  0  0  0
   19.3950   33.2820   51.9650 C   0  0  0  0  0  0  0  0  0  0  0  0
   19.6180   31.8290   52.3260 C   0  0  0  0  0  0  0  0  0  0  0  0
   19.1990   30.9470   51.1730 C   0  0  0  0  0  0  0  0  0  0  0  0
   20.9990   30.4420   49.6630 C   0  0  0  0  0  0  0  0  0  0  0  0
   21.8680   30.8260   48.5490 C   0  0  0  0  0  0  0  0  0  0  0  0
   22.0810   30.0410   47.4830 C   0  0  0  0  0  0  0  0  0  0  0  0
   23.0020   30.5730   46.4200 C   0  0  0  0  0  0  0  0  0  0  0  0
   24.9200   29.3170   47.1640 C   0  0  0  0  0  0  0  0  0  0  0  0
   24.7020   29.9320   44.8480 C   0  0  0  0  0  0  0  0  0  0  0  0
   22.1610   30.9530   45.2040 C   0  0  0  0  0  0  0  0  0  0  0  0
   23.7720   31.7720   46.9550 C   0  0  0  0  0  0  0  0  0  0  0  0
   19.8900   32.6500   49.5600 C   0  0  0  0  0  0  0  0  0  0  0  0
   20.1780   33.6320   50.7010 C   0  0  0  0  0  0  0  0  0  0  0  0
   18.1970   35.8460   52.7180 C   0  0  0  0  0  0  0  0  0  0  0  0
   19.8420   37.2620   54.7260 C   0  0  0  0  0  0  0  0  0  0  0  0
   20.8410   37.7010   53.6660 C   0  0  0  0  0  0  0  0  0  0  0  0
   20.3910   37.7310   56.0670 C   0  0  0  0  0  0  0  0  0  0  0  0
   18.4240   32.1250   57.4110 C   0  0  0  0  0  0  0  0  0  0  0  0
   17.5800   31.4850   56.3090 C   0  0  0  0  0  0  0  0  0  0  0  0
   16.4620   31.8750   54.3180 C   0  0  0  0  0  0  0  0  0  0  0  0
   15.2110   31.1040   54.7190 C   0  0  0  0  0  0  0  0  0  0  0  0
   14.4170   29.4310   56.3140 C   0  0  0  0  0  0  0  0  0  0  0  0
   14.0640   29.2320   57.6450 C   0  0  0  0  0  0  0  0  0  0  0  0
   13.0780   28.3090   57.9760 C   0  0  0  0  0  0  0  0  0  0  0  0
   12.4180   27.5920   56.9920 C   0  0  0  0  0  0  0  0  0  0  0  0
   12.7600   27.8060   55.6640 C   0  0  0  0  0  0  0  0  0  0  0  0
   13.7460   28.7200   55.3250 C   0  0  0  0  0  0  0  0  0  0  0  0
   10.6550   25.8630   56.8120 C   0  0  0  0  0  0  0  0  0  0  0  0
   11.3460   24.5180   56.7490 C   0  0  0  0  0  0  0  0  0  0  0  0
   11.5290   26.9150   58.8800 C   0  0  0  0  0  0  0  0  0  0  0  0
   10.7060   26.1780   59.8860 C   0  0  0  0  0  0  0  0  0  0  0  0
    9.3430   26.3590   60.0860 C   0  0  0  0  0  0  0  0  0  0  0  0
    8.5360   27.2970   59.2850 C   0  0  0  0  0  0  0  0  0  0  0  0
    7.2170   27.2800   57.3390 C   0  0  0  0  0  0  0  0  0  0  0  0
    7.6510   28.1440   60.1920 C   0  0  0  0  0  0  0  0  0  0  0  0
    9.3550   24.7760   61.7910 C   0  0  0  0  0  0  0  0  0  0  0  0
   10.7050   24.5540   61.6400 C   0  0  0  0  0  0  0  0  0  0  0  0
   11.3810   25.2670   60.6790 C   0  0  0  0  0  0  0  0  0  0  0  0
   12.5510   27.9380   59.2050 C   0  0  0  0  0  0  0  0  0  0  0  0
   12.9530   28.3910   60.5930 C   0  0  0  0  0  0  0  0  0  0  0  0
   12.2950   29.6100   61.2200 C   0  0  0  0  0  0  0  0  0  0  0  0
   12.9440   29.8100   62.5790 C   0  0  0  0  0  0  0  0  0  0  0  0
   10.8090   29.4150   61.4140 C   0  0  0  0  0  0  0  0  0  0  0  0
   12.5250   30.8540   60.3940 C   0  0  0  0  0  0  0  0  0  0  0  0
   14.4620   32.2940   59.9040 C   0  0  0  0  0  0  0  0  0  0  0  0
   16.4130   30.7410   56.9580 C   0  0  0  0  0  0  0  0  0  0  0  0
   18.1130   33.4750   51.7810 F   0  0  0  0  0  0  0  0  0  0  0  0
  1  4  1  0  0  0  0
  1 10  1  0  0  0  0
  2  4  1  0  0  0  0
  2  5  1  0  0  0  0
  3 13  2  0  0  0  0
  4 71  1  0  0  0  0
  5  7  1  0  0  0  0
  5 13  1  0  0  0  0
  6 30  2  0  0  0  0
  7 10  1  0  0  0  0
  8 16  1  0  0  0  0
  8 19  1  0  0  0  0
  9 25  2  0  0  0  0
 11 22  1  0  0  0  0
 11 25  1  0  0  0  0
 11 40  1  0  0  0  0
 12 19  2  0  0  0  0
 13 16  1  0  0  0  0
 14 29  1  0  0  0  0
 14 30  1  0  0  0  0
 14 38  1  0  0  0  0
 15 45  1  0  0  0  0
 15 46  1  0  0  0  0
 16 44  1  0  0  0  0
 17 33  1  0  0  0  0
 17 34  1  0  0  0  0
 17 35  1  0  0  0  0
 18 59  1  0  0  0  0
 18 60  1  0  0  0  0
 19 22  1  0  0  0  0
 20 47  1  0  0  0  0
 20 48  1  0  0  0  0
 20 72  1  0  0  0  0
 21 70  1  0  0  0  0
 21 71  1  0  0  0  0
 22 41  1  0  0  0  0
 23 51  4  0  0  0  0
 23 54  1  0  0  0  0
 23 56  4  0  0  0  0
 24 71  2  0  0  0  0
 25 27  1  0  0  0  0
 26 58  4  0  0  0  0
 26 62  4  0  0  0  0
 27 28  1  0  0  0  0
 27 39  1  0  0  0  0
 27 73  1  0  0  0  0
 28 29  1  0  0  0  0
 30 31  1  0  0  0  0
 31 32  1  0  0  0  0
 32 33  1  0  0  0  0
 33 36  1  0  0  0  0
 33 37  1  0  0  0  0
 38 39  1  0  0  0  0
 41 42  1  0  0  0  0
 41 43  1  0  0  0  0
 44 45  1  0  0  0  0
 45 72  1  0  0  0  0
 46 47  1  0  0  0  0
 48 49  4  0  0  0  0
 48 53  4  0  0  0  0
 49 50  4  0  0  0  0
 50 51  4  0  0  0  0
 50 65  4  0  0  0  0
 51 52  4  0  0  0  0
 52 53  4  0  0  0  0
 54 55  1  0  0  0  0
 56 57  1  0  0  0  0
 56 65  4  0  0  0  0
 57 58  4  0  0  0  0
 57 64  4  0  0  0  0
 58 59  1  0  0  0  0
 59 61  1  0  0  0  0
 62 63  4  0  0  0  0
 63 64  4  0  0  0  0
 65 66  1  0  0  0  0
 66 67  1  0  0  0  0
 67 68  1  0  0  0  0
 67 69  1  0  0  0  0
 67 70  1  0  0  0  0
M  END
$$$$
