 xtb: 6.7.1 (edcfbbe)
          08072517403D

151157  0     0  0            999 V2000
   16.9265   22.9132   62.2695 C   0  0  0  0  0  0  0  0  0  0  0  0
   16.3617   24.1385   61.5533 C   0  0  0  0  0  0  0  0  0  0  0  0
   16.6088   25.3413   62.2675 O   0  0  0  0  0  0  0  0  0  0  0  0
   17.8890   25.8817   62.0744 C   0  0  0  0  0  0  0  0  0  0  0  0
   14.8567   24.0385   61.3944 C   0  0  0  0  0  0  0  0  0  0  0  0
   14.2092   23.2694   62.2523 N   0  0  0  0  0  0  0  0  0  0  0  0
   12.8986   23.1486   62.1524 C   0  0  0  0  0  0  0  0  0  0  0  0
   12.1533   23.7771   61.1681 C   0  0  0  0  0  0  0  0  0  0  0  0
   12.8230   24.5818   60.2624 C   0  0  0  0  0  0  0  0  0  0  0  0
   14.2007   24.7416   60.3733 C   0  0  0  0  0  0  0  0  0  0  0  0
   14.9509   25.5814   59.4278 C   0  0  0  0  0  0  0  0  0  0  0  0
   15.3387   25.0722   58.2081 N   0  0  0  0  0  0  0  0  0  0  0  0
   15.0272   23.7653   57.6952 C   0  0  0  0  0  0  0  0  0  0  0  0
   13.8369   23.7957   56.7370 C   0  0  0  0  0  0  0  0  0  0  0  0
   15.4208   26.8637   59.5820 C   0  0  0  0  0  0  0  0  0  0  0  0
   15.2122   27.7417   60.7735 C   0  0  0  0  0  0  0  0  0  0  0  0
   14.0175   28.7190   60.6815 C   0  0  0  0  0  0  0  0  0  0  0  0
   13.7666   29.3182   62.0674 C   0  0  0  0  0  0  0  0  0  0  0  0
   12.7552   28.0047   60.2024 C   0  0  0  0  0  0  0  0  0  0  0  0
   14.3266   29.8488   59.6948 C   0  0  0  0  0  0  0  0  0  0  0  0
   15.4230   30.6277   60.1853 O   0  0  0  0  0  0  0  0  0  0  0  0
   15.7741   31.6766   59.4531 C   0  0  0  0  0  0  0  0  0  0  0  0
   16.9645   32.4057   60.0591 C   0  0  0  0  0  0  0  0  0  0  0  0
   17.0926   33.7360   59.4918 N   0  0  0  0  0  0  0  0  0  0  0  0
   18.3516   34.2564   59.8000 N   0  0  0  0  0  0  0  0  0  0  0  0
   19.4882   34.0486   59.0960 C   0  0  0  0  0  0  0  0  0  0  0  0
   19.3216   33.3407   57.7375 C   0  0  0  0  0  0  0  0  0  0  0  0
   19.4053   34.3124   56.6703 N   0  0  0  0  0  0  0  0  0  0  0  0
   18.2958   34.8866   56.1893 C   0  0  0  0  0  0  0  0  0  0  0  0
   18.5348   35.8148   54.9979 C   0  0  0  0  0  0  0  0  0  0  0  0
   17.6365   37.0585   55.0607 C   0  0  0  0  0  0  0  0  0  0  0  0
   17.8625   37.9456   53.8392 C   0  0  0  0  0  0  0  0  0  0  0  0
   17.9551   37.8307   56.3400 C   0  0  0  0  0  0  0  0  0  0  0  0
   18.3441   35.0309   53.7774 N   0  0  0  0  0  0  0  0  0  0  0  0
   19.4542   34.6952   53.0955 C   0  0  0  0  0  0  0  0  0  0  0  0
   19.3138   34.0138   51.7173 C   0  0  0  0  0  0  0  0  0  0  0  0
   20.6841   33.5925   51.1763 C   0  0  0  0  0  0  0  0  0  0  0  0
   21.5127   34.7933   50.7095 C   0  0  0  0  0  0  0  0  0  0  0  0
   20.7557   35.6085   49.7956 N   0  0  0  0  0  0  0  0  0  0  0  0
   21.0169   35.7542   48.4726 C   0  0  0  0  0  0  0  0  0  0  0  0
   22.2565   35.1704   48.0180 C   0  0  0  0  0  0  0  0  0  0  0  0
   23.2486   34.7705   47.4661 C   0  0  0  0  0  0  0  0  0  0  0  0
   24.4173   34.2063   46.7961 C   0  0  0  0  0  0  0  0  0  0  0  0
   25.6306   34.7043   47.4528 N   0  0  0  0  0  0  0  0  0  0  0  0
   25.6539   34.5368   48.8893 C   0  0  0  0  0  0  0  0  0  0  0  0
   26.8741   34.2530   46.8688 C   0  0  0  0  0  0  0  0  0  0  0  0
   24.3643   34.7129   45.3443 C   0  0  0  0  0  0  0  0  0  0  0  0
   24.2626   32.6699   46.8179 C   0  0  0  0  0  0  0  0  0  0  0  0
   20.2796   36.3529   47.7100 O   0  0  0  0  0  0  0  0  0  0  0  0
   19.5128   36.0986   50.3372 C   0  0  0  0  0  0  0  0  0  0  0  0
   18.6072   34.9240   50.7083 C   0  0  0  0  0  0  0  0  0  0  0  0
   20.5702   34.9928   53.4981 O   0  0  0  0  0  0  0  0  0  0  0  0
   16.9902   34.5843   53.5279 C   0  0  0  0  0  0  0  0  0  0  0  0
   17.1838   34.6647   56.6415 O   0  0  0  0  0  0  0  0  0  0  0  0
   20.3688   32.2368   57.5892 C   0  0  0  0  0  0  0  0  0  0  0  0
   19.9053   31.1247   56.6441 C   0  0  0  0  0  0  0  0  0  0  0  0
   18.7435   30.3058   57.2328 C   0  0  0  0  0  0  0  0  0  0  0  0
   18.3502   29.2907   56.2804 N   0  0  0  0  0  0  0  0  0  0  0  0
   17.9522   29.9203   55.0314 C   0  0  0  0  0  0  0  0  0  0  0  0
   19.1317   30.7255   54.4910 C   0  0  0  0  0  0  0  0  0  0  0  0
   19.5410   31.7101   55.4115 O   0  0  0  0  0  0  0  0  0  0  0  0
   20.5739   34.4405   59.4827 O   0  0  0  0  0  0  0  0  0  0  0  0
   18.4026   34.5942   61.2108 C   0  0  0  0  0  0  0  0  0  0  0  0
   18.1722   33.3212   62.0355 C   0  0  0  0  0  0  0  0  0  0  0  0
   16.9002   32.5990   61.5790 C   0  0  0  0  0  0  0  0  0  0  0  0
   15.2629   31.9807   58.4079 O   0  0  0  0  0  0  0  0  0  0  0  0
   16.1583   27.1640   58.3953 C   0  0  0  0  0  0  0  0  0  0  0  0
   16.0713   26.0278   57.5581 C   0  0  0  0  0  0  0  0  0  0  0  0
   16.6974   25.9991   56.3175 C   0  0  0  0  0  0  0  0  0  0  0  0
   17.4155   27.1046   55.9302 C   0  0  0  0  0  0  0  0  0  0  0  0
   17.5304   28.2456   56.7481 C   0  0  0  0  0  0  0  0  0  0  0  0
   16.9039   28.2708   57.9825 C   0  0  0  0  0  0  0  0  0  0  0  0
   18.5659   32.8358   51.8398 F   0  0  0  0  0  0  0  0  0  0  0  0
   16.4878   22.8451   63.2597 H   0  0  0  0  0  0  0  0  0  0  0  0
   16.6777   22.0153   61.7112 H   0  0  0  0  0  0  0  0  0  0  0  0
   18.0075   22.9874   62.3553 H   0  0  0  0  0  0  0  0  0  0  0  0
   16.8136   24.2239   60.5499 H   0  0  0  0  0  0  0  0  0  0  0  0
   17.9092   26.8172   62.6303 H   0  0  0  0  0  0  0  0  0  0  0  0
   18.6774   25.2230   62.4547 H   0  0  0  0  0  0  0  0  0  0  0  0
   18.0758   26.0849   61.0119 H   0  0  0  0  0  0  0  0  0  0  0  0
   12.4331   22.5086   62.8905 H   0  0  0  0  0  0  0  0  0  0  0  0
   11.0848   23.6399   61.1080 H   0  0  0  0  0  0  0  0  0  0  0  0
   12.2842   25.0875   59.4737 H   0  0  0  0  0  0  0  0  0  0  0  0
   15.9092   23.3787   57.1745 H   0  0  0  0  0  0  0  0  0  0  0  0
   14.8097   23.1045   58.5396 H   0  0  0  0  0  0  0  0  0  0  0  0
   12.9413   24.1298   57.2546 H   0  0  0  0  0  0  0  0  0  0  0  0
   14.0345   24.4774   55.9134 H   0  0  0  0  0  0  0  0  0  0  0  0
   13.6560   22.8022   56.3359 H   0  0  0  0  0  0  0  0  0  0  0  0
   15.0644   27.1014   61.6450 H   0  0  0  0  0  0  0  0  0  0  0  0
   16.1134   28.3348   60.9408 H   0  0  0  0  0  0  0  0  0  0  0  0
   14.6595   29.8185   62.4319 H   0  0  0  0  0  0  0  0  0  0  0  0
   12.9570   30.0441   62.0278 H   0  0  0  0  0  0  0  0  0  0  0  0
   13.4952   28.5356   62.7715 H   0  0  0  0  0  0  0  0  0  0  0  0
   12.5171   27.1866   60.8769 H   0  0  0  0  0  0  0  0  0  0  0  0
   11.9127   28.6926   60.1815 H   0  0  0  0  0  0  0  0  0  0  0  0
   12.8988   27.6058   59.2011 H   0  0  0  0  0  0  0  0  0  0  0  0
   14.5851   29.4481   58.7094 H   0  0  0  0  0  0  0  0  0  0  0  0
   13.4612   30.5100   59.5756 H   0  0  0  0  0  0  0  0  0  0  0  0
   17.8485   31.7736   59.8305 H   0  0  0  0  0  0  0  0  0  0  0  0
   16.8415   33.8284   58.5082 H   0  0  0  0  0  0  0  0  0  0  0  0
   18.3216   32.9092   57.6602 H   0  0  0  0  0  0  0  0  0  0  0  0
   20.2995   34.4707   56.2325 H   0  0  0  0  0  0  0  0  0  0  0  0
   19.5811   36.1357   54.9939 H   0  0  0  0  0  0  0  0  0  0  0  0
   16.5914   36.7412   55.1036 H   0  0  0  0  0  0  0  0  0  0  0  0
   17.2391   38.8340   53.9019 H   0  0  0  0  0  0  0  0  0  0  0  0
   18.9031   38.2606   53.7917 H   0  0  0  0  0  0  0  0  0  0  0  0
   17.6220   37.4262   52.9149 H   0  0  0  0  0  0  0  0  0  0  0  0
   17.7631   37.2172   57.2162 H   0  0  0  0  0  0  0  0  0  0  0  0
   18.9990   38.1379   56.3526 H   0  0  0  0  0  0  0  0  0  0  0  0
   17.3336   38.7205   56.4032 H   0  0  0  0  0  0  0  0  0  0  0  0
   21.2270   33.0589   51.9568 H   0  0  0  0  0  0  0  0  0  0  0  0
   20.5104   32.9128   50.3387 H   0  0  0  0  0  0  0  0  0  0  0  0
   21.7878   35.3937   51.5826 H   0  0  0  0  0  0  0  0  0  0  0  0
   22.4203   34.4439   50.2145 H   0  0  0  0  0  0  0  0  0  0  0  0
   26.4867   35.1172   49.2867 H   0  0  0  0  0  0  0  0  0  0  0  0
   24.7317   34.9230   49.3180 H   0  0  0  0  0  0  0  0  0  0  0  0
   25.7862   33.4905   49.2077 H   0  0  0  0  0  0  0  0  0  0  0  0
   27.6821   34.8430   47.3027 H   0  0  0  0  0  0  0  0  0  0  0  0
   27.0888   33.1907   47.0641 H   0  0  0  0  0  0  0  0  0  0  0  0
   26.8736   34.4229   45.7960 H   0  0  0  0  0  0  0  0  0  0  0  0
   24.6614   35.7577   45.3132 H   0  0  0  0  0  0  0  0  0  0  0  0
   25.0173   34.1315   44.6986 H   0  0  0  0  0  0  0  0  0  0  0  0
   23.3479   34.6289   44.9671 H   0  0  0  0  0  0  0  0  0  0  0  0
   24.2638   32.2966   47.8397 H   0  0  0  0  0  0  0  0  0  0  0  0
   23.3211   32.3916   46.3513 H   0  0  0  0  0  0  0  0  0  0  0  0
   25.0754   32.2026   46.2670 H   0  0  0  0  0  0  0  0  0  0  0  0
   19.7254   36.7065   51.2239 H   0  0  0  0  0  0  0  0  0  0  0  0
   19.0376   36.7195   49.5748 H   0  0  0  0  0  0  0  0  0  0  0  0
   18.3936   34.3343   49.8134 H   0  0  0  0  0  0  0  0  0  0  0  0
   17.6626   35.2897   51.1069 H   0  0  0  0  0  0  0  0  0  0  0  0
   16.9704   33.6928   52.9124 H   0  0  0  0  0  0  0  0  0  0  0  0
   16.5239   34.3453   54.4843 H   0  0  0  0  0  0  0  0  0  0  0  0
   16.3997   35.3685   53.0469 H   0  0  0  0  0  0  0  0  0  0  0  0
   21.2931   32.6748   57.2112 H   0  0  0  0  0  0  0  0  0  0  0  0
   20.5845   31.8024   58.5668 H   0  0  0  0  0  0  0  0  0  0  0  0
   20.7436   30.4254   56.4734 H   0  0  0  0  0  0  0  0  0  0  0  0
   19.0862   29.8201   58.1494 H   0  0  0  0  0  0  0  0  0  0  0  0
   17.8971   30.9734   57.4641 H   0  0  0  0  0  0  0  0  0  0  0  0
   17.6587   29.1622   54.3071 H   0  0  0  0  0  0  0  0  0  0  0  0
   17.1003   30.6022   55.1951 H   0  0  0  0  0  0  0  0  0  0  0  0
   19.9705   30.0440   54.2811 H   0  0  0  0  0  0  0  0  0  0  0  0
   18.8535   31.2536   53.5798 H   0  0  0  0  0  0  0  0  0  0  0  0
   19.3792   35.0293   61.4224 H   0  0  0  0  0  0  0  0  0  0  0  0
   17.6145   35.3238   61.4071 H   0  0  0  0  0  0  0  0  0  0  0  0
   19.0320   32.6594   61.9048 H   0  0  0  0  0  0  0  0  0  0  0  0
   18.0990   33.5785   63.0921 H   0  0  0  0  0  0  0  0  0  0  0  0
   16.0259   33.2081   61.8109 H   0  0  0  0  0  0  0  0  0  0  0  0
   16.8049   31.6372   62.0824 H   0  0  0  0  0  0  0  0  0  0  0  0
   16.6396   25.1325   55.6760 H   0  0  0  0  0  0  0  0  0  0  0  0
   17.9317   27.0944   54.9827 H   0  0  0  0  0  0  0  0  0  0  0  0
   16.9865   29.1243   58.6358 H   0  0  0  0  0  0  0  0  0  0  0  0
  1  2  1  0  0  0  0
  2  3  1  0  0  0  0
  3  4  1  0  0  0  0
  2  5  1  0  0  0  0
  5  6  4  0  0  0  0
  6  7  4  0  0  0  0
  7  8  4  0  0  0  0
  8  9  4  0  0  0  0
  5 10  4  0  0  0  0
  9 10  4  0  0  0  0
 10 11  1  0  0  0  0
 11 12  1  0  0  0  0
 12 13  1  0  0  0  0
 13 14  1  0  0  0  0
 11 15  2  0  0  0  0
 15 16  1  0  0  0  0
 16 17  1  0  0  0  0
 17 18  1  0  0  0  0
 17 19  1  0  0  0  0
 17 20  1  0  0  0  0
 20 21  1  0  0  0  0
 21 22  1  0  0  0  0
 22 23  1  0  0  0  0
 23 24  1  0  0  0  0
 24 25  1  0  0  0  0
 25 26  4  0  0  0  0
 26 27  1  0  0  0  0
 27 28  1  0  0  0  0
 28 29  4  0  0  0  0
 29 30  1  0  0  0  0
 30 31  1  0  0  0  0
 31 32  1  0  0  0  0
 31 33  1  0  0  0  0
 30 34  1  0  0  0  0
 34 35  4  0  0  0  0
 35 36  1  0  0  0  0
 36 37  1  0  0  0  0
 37 38  1  0  0  0  0
 38 39  1  0  0  0  0
 39 40  4  0  0  0  0
 40 41  1  0  0  0  0
 41 42  3  0  0  0  0
 42 43  1  0  0  0  0
 43 44  1  0  0  0  0
 44 45  1  0  0  0  0
 44 46  1  0  0  0  0
 43 47  1  0  0  0  0
 43 48  1  0  0  0  0
 40 49  2  0  0  0  0
 39 50  1  0  0  0  0
 36 51  1  0  0  0  0
 50 51  1  0  0  0  0
 35 52  2  0  0  0  0
 34 53  1  0  0  0  0
 29 54  2  0  0  0  0
 27 55  1  0  0  0  0
 55 56  1  0  0  0  0
 56 57  1  0  0  0  0
 57 58  1  0  0  0  0
 58 59  1  0  0  0  0
 59 60  1  0  0  0  0
 56 61  1  0  0  0  0
 60 61  1  0  0  0  0
 26 62  2  0  0  0  0
 25 63  1  0  0  0  0
 63 64  1  0  0  0  0
 23 65  1  0  0  0  0
 64 65  1  0  0  0  0
 22 66  2  0  0  0  0
 15 67  4  0  0  0  0
 12 68  1  0  0  0  0
 67 68  4  0  0  0  0
 68 69  4  0  0  0  0
 69 70  2  0  0  0  0
 58 71  1  0  0  0  0
 70 71  4  0  0  0  0
 67 72  4  0  0  0  0
 71 72  4  0  0  0  0
 36 73  1  0  0  0  0
  1 74  1  0  0  0  0
  1 75  1  0  0  0  0
  1 76  1  0  0  0  0
  2 77  1  0  0  0  0
  4 78  1  0  0  0  0
  4 79  1  0  0  0  0
  4 80  1  0  0  0  0
  7 81  1  0  0  0  0
  8 82  1  0  0  0  0
  9 83  1  0  0  0  0
 13 84  1  0  0  0  0
 13 85  1  0  0  0  0
 14 86  1  0  0  0  0
 14 87  1  0  0  0  0
 14 88  1  0  0  0  0
 16 89  1  0  0  0  0
 16 90  1  0  0  0  0
 18 91  1  0  0  0  0
 18 92  1  0  0  0  0
 18 93  1  0  0  0  0
 19 94  1  0  0  0  0
 19 95  1  0  0  0  0
 19 96  1  0  0  0  0
 20 97  1  0  0  0  0
 20 98  1  0  0  0  0
 23 99  1  0  0  0  0
 24100  1  0  0  0  0
 27101  1  0  0  0  0
 28102  1  0  0  0  0
 30103  1  0  0  0  0
 31104  1  0  0  0  0
 32105  1  0  0  0  0
 32106  1  0  0  0  0
 32107  1  0  0  0  0
 33108  1  0  0  0  0
 33109  1  0  0  0  0
 33110  1  0  0  0  0
 37111  1  0  0  0  0
 37112  1  0  0  0  0
 38113  1  0  0  0  0
 38114  1  0  0  0  0
 45115  1  0  0  0  0
 45116  1  0  0  0  0
 45117  1  0  0  0  0
 46118  1  0  0  0  0
 46119  1  0  0  0  0
 46120  1  0  0  0  0
 47121  1  0  0  0  0
 47122  1  0  0  0  0
 47123  1  0  0  0  0
 48124  1  0  0  0  0
 48125  1  0  0  0  0
 48126  1  0  0  0  0
 50127  1  0  0  0  0
 50128  1  0  0  0  0
 51129  1  0  0  0  0
 51130  1  0  0  0  0
 53131  1  0  0  0  0
 53132  1  0  0  0  0
 53133  1  0  0  0  0
 55134  1  0  0  0  0
 55135  1  0  0  0  0
 56136  1  0  0  0  0
 57137  1  0  0  0  0
 57138  1  0  0  0  0
 59139  1  0  0  0  0
 59140  1  0  0  0  0
 60141  1  0  0  0  0
 60142  1  0  0  0  0
 63143  1  0  0  0  0
 63144  1  0  0  0  0
 64145  1  0  0  0  0
 64146  1  0  0  0  0
 65147  1  0  0  0  0
 65148  1  0  0  0  0
 69149  1  0  0  0  0
 70150  1  0  0  0  0
 72151  1  0  0  0  0
M  END
