 energy: -221.289908304467 gnorm: 0.000328147293 xtb: 6.7.1 (edcfbbe)
          08232515393D

151157  0     0  0            999 V2000
   -1.8905    3.6704   -1.1910 C   0  0  0  0  0  0  0  0  0  0  0  0
   -2.2427    3.6103    0.3014 C   0  0  0  0  0  0  0  0  0  0  0  0
   -1.1804    3.0830    1.0785 O   0  0  0  0  0  0  0  0  0  0  0  0
   -0.3082    4.0534    1.5912 C   0  0  0  0  0  0  0  0  0  0  0  0
   -3.5104    2.8066    0.4927 C   0  0  0  0  0  0  0  0  0  0  0  0
   -4.5878    3.5691    0.6345 N   0  0  0  0  0  0  0  0  0  0  0  0
   -5.7812    3.0140    0.7189 C   0  0  0  0  0  0  0  0  0  0  0  0
   -5.9779    1.6445    0.6528 C   0  0  0  0  0  0  0  0  0  0  0  0
   -4.8597    0.8432    0.5213 C   0  0  0  0  0  0  0  0  0  0  0  0
   -3.5858    1.4095    0.4542 C   0  0  0  0  0  0  0  0  0  0  0  0
   -2.4325    0.5063    0.3215 C   0  0  0  0  0  0  0  0  0  0  0  0
   -2.1964   -0.1180   -0.8832 N   0  0  0  0  0  0  0  0  0  0  0  0
   -2.9308    0.0667   -2.1077 C   0  0  0  0  0  0  0  0  0  0  0  0
   -3.8373   -1.1248   -2.4151 C   0  0  0  0  0  0  0  0  0  0  0  0
   -1.5425    0.0603    1.2728 C   0  0  0  0  0  0  0  0  0  0  0  0
   -1.3954    0.4861    2.7001 C   0  0  0  0  0  0  0  0  0  0  0  0
   -2.1951   -0.3179    3.7504 C   0  0  0  0  0  0  0  0  0  0  0  0
   -3.6858   -0.2961    3.4105 C   0  0  0  0  0  0  0  0  0  0  0  0
   -1.9814    0.3289    5.1212 C   0  0  0  0  0  0  0  0  0  0  0  0
   -1.7652   -1.7988    3.7880 C   0  0  0  0  0  0  0  0  0  0  0  0
   -0.6146   -2.0787    4.5990 O   0  0  0  0  0  0  0  0  0  0  0  0
   -0.8470   -2.5679    5.8145 C   0  0  0  0  0  0  0  0  0  0  0  0
    0.4360   -3.0262    6.4989 C   0  0  0  0  0  0  0  0  0  0  0  0
    1.4946   -2.0268    6.4992 N   0  0  0  0  0  0  0  0  0  0  0  0
    2.6918   -2.6239    6.9138 N   0  0  0  0  0  0  0  0  0  0  0  0
    3.5698   -3.2814    6.1220 C   0  0  0  0  0  0  0  0  0  0  0  0
    3.3353   -3.1551    4.6049 C   0  0  0  0  0  0  0  0  0  0  0  0
    4.2657   -2.1820    4.0682 N   0  0  0  0  0  0  0  0  0  0  0  0
    3.9623   -0.8780    4.0251 C   0  0  0  0  0  0  0  0  0  0  0  0
    5.0524    0.0157    3.4283 C   0  0  0  0  0  0  0  0  0  0  0  0
    5.8924    0.6834    4.5300 C   0  0  0  0  0  0  0  0  0  0  0  0
    7.0304    1.4844    3.8993 C   0  0  0  0  0  0  0  0  0  0  0  0
    6.4643   -0.3764    5.4707 C   0  0  0  0  0  0  0  0  0  0  0  0
    4.4242    0.9648    2.5084 N   0  0  0  0  0  0  0  0  0  0  0  0
    4.3826    0.5817    1.2204 C   0  0  0  0  0  0  0  0  0  0  0  0
    3.6416    1.4390    0.1807 C   0  0  0  0  0  0  0  0  0  0  0  0
    2.1288    1.2271    0.2846 C   0  0  0  0  0  0  0  0  0  0  0  0
    1.4121    2.0321   -0.7967 C   0  0  0  0  0  0  0  0  0  0  0  0
    1.8940    1.6407   -2.0985 N   0  0  0  0  0  0  0  0  0  0  0  0
    1.0432    1.1674   -3.0332 C   0  0  0  0  0  0  0  0  0  0  0  0
    1.6602    0.6605   -4.2343 C   0  0  0  0  0  0  0  0  0  0  0  0
    1.9833    0.1585   -5.2797 C   0  0  0  0  0  0  0  0  0  0  0  0
    2.5262   -0.4348   -6.4980 C   0  0  0  0  0  0  0  0  0  0  0  0
    1.4618   -0.4900   -7.5038 N   0  0  0  0  0  0  0  0  0  0  0  0
    1.8407   -1.0692   -8.7730 C   0  0  0  0  0  0  0  0  0  0  0  0
    0.7596    0.7597   -7.7047 C   0  0  0  0  0  0  0  0  0  0  0  0
    3.7615    0.3925   -6.9151 C   0  0  0  0  0  0  0  0  0  0  0  0
    2.9607   -1.8630   -6.1213 C   0  0  0  0  0  0  0  0  0  0  0  0
   -0.1692    1.1557   -2.8936 O   0  0  0  0  0  0  0  0  0  0  0  0
    3.3118    1.8188   -2.2843 C   0  0  0  0  0  0  0  0  0  0  0  0
    4.1045    1.0510   -1.2270 C   0  0  0  0  0  0  0  0  0  0  0  0
    4.9012   -0.4607    0.8416 O   0  0  0  0  0  0  0  0  0  0  0  0
    3.7424    2.0951    3.1015 C   0  0  0  0  0  0  0  0  0  0  0  0
    2.8912   -0.4430    4.4234 O   0  0  0  0  0  0  0  0  0  0  0  0
    3.5037   -4.5064    3.9140 C   0  0  0  0  0  0  0  0  0  0  0  0
    3.2891   -4.4493    2.3927 C   0  0  0  0  0  0  0  0  0  0  0  0
    2.2543   -3.3956    1.9922 C   0  0  0  0  0  0  0  0  0  0  0  0
    2.0706   -3.3527    0.5552 N   0  0  0  0  0  0  0  0  0  0  0  0
    3.3569   -3.1266   -0.0953 C   0  0  0  0  0  0  0  0  0  0  0  0
    4.3628   -4.1815    0.3638 C   0  0  0  0  0  0  0  0  0  0  0  0
    4.5262   -4.1745    1.7640 O   0  0  0  0  0  0  0  0  0  0  0  0
    4.5385   -3.8677    6.5689 O   0  0  0  0  0  0  0  0  0  0  0  0
    2.6327   -2.9105    8.3357 C   0  0  0  0  0  0  0  0  0  0  0  0
    1.4974   -3.9086    8.5859 C   0  0  0  0  0  0  0  0  0  0  0  0
    0.1963   -3.3956    7.9671 C   0  0  0  0  0  0  0  0  0  0  0  0
   -1.9384   -2.7317    6.2930 O   0  0  0  0  0  0  0  0  0  0  0  0
   -0.6962   -0.8733    0.6056 C   0  0  0  0  0  0  0  0  0  0  0  0
   -1.1245   -0.9507   -0.7376 C   0  0  0  0  0  0  0  0  0  0  0  0
   -0.4599   -1.7696   -1.6454 C   0  0  0  0  0  0  0  0  0  0  0  0
    0.5978   -2.5243   -1.1913 C   0  0  0  0  0  0  0  0  0  0  0  0
    1.0283   -2.4815    0.1490 C   0  0  0  0  0  0  0  0  0  0  0  0
    0.3887   -1.6353    1.0393 C   0  0  0  0  0  0  0  0  0  0  0  0
    3.9432    2.7914    0.3625 F   0  0  0  0  0  0  0  0  0  0  0  0
   -1.0463    4.3379   -1.3490 H   0  0  0  0  0  0  0  0  0  0  0  0
   -1.6289    2.6849   -1.5669 H   0  0  0  0  0  0  0  0  0  0  0  0
   -2.7425    4.0514   -1.7479 H   0  0  0  0  0  0  0  0  0  0  0  0
   -2.4790    4.6281    0.6468 H   0  0  0  0  0  0  0  0  0  0  0  0
    0.4182    3.5210    2.2028 H   0  0  0  0  0  0  0  0  0  0  0  0
    0.2169    4.5990    0.7987 H   0  0  0  0  0  0  0  0  0  0  0  0
   -0.8418    4.7787    2.2186 H   0  0  0  0  0  0  0  0  0  0  0  0
   -6.6083    3.7019    0.8368 H   0  0  0  0  0  0  0  0  0  0  0  0
   -6.9681    1.2198    0.7061 H   0  0  0  0  0  0  0  0  0  0  0  0
   -4.9634   -0.2315    0.4733 H   0  0  0  0  0  0  0  0  0  0  0  0
   -3.5304    0.9761   -2.0191 H   0  0  0  0  0  0  0  0  0  0  0  0
   -2.2090    0.2066   -2.9165 H   0  0  0  0  0  0  0  0  0  0  0  0
   -4.5996   -1.2404   -1.6480 H   0  0  0  0  0  0  0  0  0  0  0  0
   -4.3306   -0.9748   -3.3717 H   0  0  0  0  0  0  0  0  0  0  0  0
   -3.2555   -2.0418   -2.4616 H   0  0  0  0  0  0  0  0  0  0  0  0
   -0.3374    0.4234    2.9653 H   0  0  0  0  0  0  0  0  0  0  0  0
   -1.7001    1.5301    2.7779 H   0  0  0  0  0  0  0  0  0  0  0  0
   -4.2668   -0.7356    4.2184 H   0  0  0  0  0  0  0  0  0  0  0  0
   -4.0226    0.7261    3.2585 H   0  0  0  0  0  0  0  0  0  0  0  0
   -3.8716   -0.8622    2.5020 H   0  0  0  0  0  0  0  0  0  0  0  0
   -2.4917   -0.2399    5.8953 H   0  0  0  0  0  0  0  0  0  0  0  0
   -0.9222    0.3755    5.3665 H   0  0  0  0  0  0  0  0  0  0  0  0
   -2.3785    1.3413    5.1185 H   0  0  0  0  0  0  0  0  0  0  0  0
   -2.5908   -2.4002    4.1819 H   0  0  0  0  0  0  0  0  0  0  0  0
   -1.5107   -2.1403    2.7829 H   0  0  0  0  0  0  0  0  0  0  0  0
    0.7428   -3.9375    5.9442 H   0  0  0  0  0  0  0  0  0  0  0  0
    1.6093   -1.4907    5.6417 H   0  0  0  0  0  0  0  0  0  0  0  0
    2.3255   -2.7797    4.4240 H   0  0  0  0  0  0  0  0  0  0  0  0
    5.1157   -2.5430    3.6633 H   0  0  0  0  0  0  0  0  0  0  0  0
    5.7139   -0.6035    2.8131 H   0  0  0  0  0  0  0  0  0  0  0  0
    5.2515    1.3473    5.1164 H   0  0  0  0  0  0  0  0  0  0  0  0
    7.5857    2.0167    4.6678 H   0  0  0  0  0  0  0  0  0  0  0  0
    7.7151    0.8153    3.3825 H   0  0  0  0  0  0  0  0  0  0  0  0
    6.6599    2.2085    3.1784 H   0  0  0  0  0  0  0  0  0  0  0  0
    7.0976    0.0996    6.2155 H   0  0  0  0  0  0  0  0  0  0  0  0
    5.6770   -0.9145    5.9927 H   0  0  0  0  0  0  0  0  0  0  0  0
    7.0690   -1.0948    4.9214 H   0  0  0  0  0  0  0  0  0  0  0  0
    1.9248    0.1640    0.1452 H   0  0  0  0  0  0  0  0  0  0  0  0
    1.7427    1.5164    1.2604 H   0  0  0  0  0  0  0  0  0  0  0  0
    0.3399    1.8450   -0.7448 H   0  0  0  0  0  0  0  0  0  0  0  0
    1.6023    3.1012   -0.6463 H   0  0  0  0  0  0  0  0  0  0  0  0
    2.3347   -2.0252   -8.6234 H   0  0  0  0  0  0  0  0  0  0  0  0
    0.9300   -1.2467   -9.3458 H   0  0  0  0  0  0  0  0  0  0  0  0
    2.4948   -0.4174   -9.3732 H   0  0  0  0  0  0  0  0  0  0  0  0
    0.4631    1.1729   -6.7432 H   0  0  0  0  0  0  0  0  0  0  0  0
    1.3532    1.5111   -8.2490 H   0  0  0  0  0  0  0  0  0  0  0  0
   -0.1401    0.5557   -8.2855 H   0  0  0  0  0  0  0  0  0  0  0  0
    4.4888    0.3998   -6.1068 H   0  0  0  0  0  0  0  0  0  0  0  0
    4.2266   -0.0436   -7.7957 H   0  0  0  0  0  0  0  0  0  0  0  0
    3.4786    1.4198   -7.1335 H   0  0  0  0  0  0  0  0  0  0  0  0
    2.0811   -2.4901   -6.0042 H   0  0  0  0  0  0  0  0  0  0  0  0
    3.6087   -2.2893   -6.8823 H   0  0  0  0  0  0  0  0  0  0  0  0
    3.5063   -1.8446   -5.1806 H   0  0  0  0  0  0  0  0  0  0  0  0
    3.5900    1.4791   -3.2836 H   0  0  0  0  0  0  0  0  0  0  0  0
    3.5452    2.8886   -2.1976 H   0  0  0  0  0  0  0  0  0  0  0  0
    5.1681    1.2700   -1.3296 H   0  0  0  0  0  0  0  0  0  0  0  0
    3.9618   -0.0222   -1.3481 H   0  0  0  0  0  0  0  0  0  0  0  0
    3.0774    1.7304    3.8857 H   0  0  0  0  0  0  0  0  0  0  0  0
    4.4661    2.7878    3.5337 H   0  0  0  0  0  0  0  0  0  0  0  0
    3.1614    2.6390    2.3684 H   0  0  0  0  0  0  0  0  0  0  0  0
    4.5086   -4.8851    4.1086 H   0  0  0  0  0  0  0  0  0  0  0  0
    2.7890   -5.2056    4.3511 H   0  0  0  0  0  0  0  0  0  0  0  0
    2.9374   -5.4359    2.0431 H   0  0  0  0  0  0  0  0  0  0  0  0
    1.2958   -3.6397    2.4566 H   0  0  0  0  0  0  0  0  0  0  0  0
    2.6079   -2.4161    2.3431 H   0  0  0  0  0  0  0  0  0  0  0  0
    3.2340   -3.1878   -1.1767 H   0  0  0  0  0  0  0  0  0  0  0  0
    3.7633   -2.1378    0.1668 H   0  0  0  0  0  0  0  0  0  0  0  0
    4.0292   -5.1796    0.0396 H   0  0  0  0  0  0  0  0  0  0  0  0
    5.3459   -3.9684   -0.0579 H   0  0  0  0  0  0  0  0  0  0  0  0
    3.5957   -3.3192    8.6408 H   0  0  0  0  0  0  0  0  0  0  0  0
    2.4386   -1.9708    8.8564 H   0  0  0  0  0  0  0  0  0  0  0  0
    1.7670   -4.8663    8.1340 H   0  0  0  0  0  0  0  0  0  0  0  0
    1.3705   -4.0615    9.6573 H   0  0  0  0  0  0  0  0  0  0  0  0
   -0.1367   -2.4983    8.4897 H   0  0  0  0  0  0  0  0  0  0  0  0
   -0.5910   -4.1453    8.0386 H   0  0  0  0  0  0  0  0  0  0  0  0
   -0.7546   -1.8139   -2.6824 H   0  0  0  0  0  0  0  0  0  0  0  0
    1.1071   -3.1845   -1.8770 H   0  0  0  0  0  0  0  0  0  0  0  0
    0.7043   -1.5316    2.0638 H   0  0  0  0  0  0  0  0  0  0  0  0
  1  2  1  0  0  0  0
  2  3  1  0  0  0  0
  2  5  1  0  0  0  0
  3  4  1  0  0  0  0
  5  6  2  0  0  0  0
  5 10  1  0  0  0  0
  6  7  1  0  0  0  0
  7  8  2  0  0  0  0
  8  9  1  0  0  0  0
  9 10  2  0  0  0  0
 10 11  1  0  0  0  0
 11 12  1  0  0  0  0
 11 15  2  0  0  0  0
 12 13  1  0  0  0  0
 12 68  1  0  0  0  0
 13 14  1  0  0  0  0
 15 16  1  0  0  0  0
 15 67  1  0  0  0  0
 16 17  1  0  0  0  0
 17 18  1  0  0  0  0
 17 19  1  0  0  0  0
 17 20  1  0  0  0  0
 20 21  1  0  0  0  0
 21 22  1  0  0  0  0
 22 23  1  0  0  0  0
 22 66  2  0  0  0  0
 23 24  1  0  0  0  0
 23 65  1  0  0  0  0
 24 25  1  0  0  0  0
 25 26  1  0  0  0  0
 25 63  1  0  0  0  0
 26 27  1  0  0  0  0
 26 62  2  0  0  0  0
 27 28  1  0  0  0  0
 27 55  1  0  0  0  0
 28 29  1  0  0  0  0
 29 30  1  0  0  0  0
 29 54  2  0  0  0  0
 30 31  1  0  0  0  0
 30 34  1  0  0  0  0
 31 32  1  0  0  0  0
 31 33  1  0  0  0  0
 34 35  1  0  0  0  0
 34 53  1  0  0  0  0
 35 36  1  0  0  0  0
 35 52  2  0  0  0  0
 36 37  1  0  0  0  0
 36 51  1  0  0  0  0
 36 73  1  0  0  0  0
 37 38  1  0  0  0  0
 38 39  1  0  0  0  0
 39 40  1  0  0  0  0
 39 50  1  0  0  0  0
 40 41  1  0  0  0  0
 40 49  2  0  0  0  0
 42 43  1  0  0  0  0
 43 44  1  0  0  0  0
 43 47  1  0  0  0  0
 43 48  1  0  0  0  0
 44 45  1  0  0  0  0
 44 46  1  0  0  0  0
 50 51  1  0  0  0  0
 55 56  1  0  0  0  0
 56 57  1  0  0  0  0
 56 61  1  0  0  0  0
 57 58  1  0  0  0  0
 58 59  1  0  0  0  0
 58 71  1  0  0  0  0
 59 60  1  0  0  0  0
 60 61  1  0  0  0  0
 63 64  1  0  0  0  0
 64 65  1  0  0  0  0
 67 68  2  0  0  0  0
 67 72  1  0  0  0  0
 68 69  1  0  0  0  0
 69 70  2  0  0  0  0
 70 71  1  0  0  0  0
 71 72  2  0  0  0  0
 41 42  3  0  0  0  0
  1 74  1  0  0  0  0
  1 75  1  0  0  0  0
  1 76  1  0  0  0  0
  2 77  1  0  0  0  0
  4 78  1  0  0  0  0
  4 79  1  0  0  0  0
  4 80  1  0  0  0  0
  7 81  1  0  0  0  0
  8 82  1  0  0  0  0
  9 83  1  0  0  0  0
 13 84  1  0  0  0  0
 13 85  1  0  0  0  0
 14 86  1  0  0  0  0
 14 87  1  0  0  0  0
 14 88  1  0  0  0  0
 16 89  1  0  0  0  0
 16 90  1  0  0  0  0
 18 91  1  0  0  0  0
 18 92  1  0  0  0  0
 18 93  1  0  0  0  0
 19 94  1  0  0  0  0
 19 95  1  0  0  0  0
 19 96  1  0  0  0  0
 20 97  1  0  0  0  0
 20 98  1  0  0  0  0
 23 99  1  0  0  0  0
 24100  1  0  0  0  0
 27101  1  0  0  0  0
 28102  1  0  0  0  0
 30103  1  0  0  0  0
 31104  1  0  0  0  0
 32105  1  0  0  0  0
 32106  1  0  0  0  0
 32107  1  0  0  0  0
 33108  1  0  0  0  0
 33109  1  0  0  0  0
 33110  1  0  0  0  0
 37111  1  0  0  0  0
 37112  1  0  0  0  0
 38113  1  0  0  0  0
 38114  1  0  0  0  0
 45115  1  0  0  0  0
 45116  1  0  0  0  0
 45117  1  0  0  0  0
 46118  1  0  0  0  0
 46119  1  0  0  0  0
 46120  1  0  0  0  0
 47121  1  0  0  0  0
 47122  1  0  0  0  0
 47123  1  0  0  0  0
 48124  1  0  0  0  0
 48125  1  0  0  0  0
 48126  1  0  0  0  0
 50127  1  0  0  0  0
 50128  1  0  0  0  0
 51129  1  0  0  0  0
 51130  1  0  0  0  0
 53131  1  0  0  0  0
 53132  1  0  0  0  0
 53133  1  0  0  0  0
 55134  1  0  0  0  0
 55135  1  0  0  0  0
 56136  1  0  0  0  0
 57137  1  0  0  0  0
 57138  1  0  0  0  0
 59139  1  0  0  0  0
 59140  1  0  0  0  0
 60141  1  0  0  0  0
 60142  1  0  0  0  0
 63143  1  0  0  0  0
 63144  1  0  0  0  0
 64145  1  0  0  0  0
 64146  1  0  0  0  0
 65147  1  0  0  0  0
 65148  1  0  0  0  0
 69149  1  0  0  0  0
 70150  1  0  0  0  0
 72151  1  0  0  0  0
M  END
$$$$
