mol_bioactive_4
     RDKit          3D

151157  0  0  0  0  0  0  0  0999 V2000
    0.0252   15.4867  -12.7743 C   0  0  0  0  0  0  0  0  0  0  0  0
    0.0015   14.9283  -11.3481 C   0  0  2  0  0  0  0  0  0  0  0  0
   -0.0201   16.0037  -10.3960 O   0  0  0  0  0  0  0  0  0  0  0  0
   -1.3012   16.5965  -10.2462 C   0  0  0  0  0  0  0  0  0  0  0  0
    1.2297   14.0631  -11.0753 C   0  0  0  0  0  0  0  0  0  0  0  0
    2.4179   14.5230  -11.5739 N   0  0  0  0  0  0  0  0  0  0  0  0
    3.5250   13.7787  -11.3803 C   0  0  0  0  0  0  0  0  0  0  0  0
    3.5283   12.5712  -10.7116 C   0  0  0  0  0  0  0  0  0  0  0  0
    2.3223   12.1057  -10.2033 C   0  0  0  0  0  0  0  0  0  0  0  0
    1.1456   12.8514  -10.3655 C   0  0  0  0  0  0  0  0  0  0  0  0
   -0.1196   12.2921   -9.8723 C   0  0  0  0  0  0  0  0  0  0  0  0
   -0.7806   11.2711  -10.5398 N   0  0  0  0  0  0  0  0  0  0  0  0
   -0.2993   10.5650  -11.7232 C   0  0  0  0  0  0  0  0  0  0  0  0
    0.2710    9.1977  -11.3858 C   0  0  0  0  0  0  0  0  0  0  0  0
   -0.9086   12.6498   -8.7765 C   0  0  0  0  0  0  0  0  0  0  0  0
   -0.6370   13.6909   -7.7101 C   0  0  0  0  0  0  0  0  0  0  0  0
    0.4189   13.3779   -6.6069 C   0  0  0  0  0  0  0  0  0  0  0  0
    0.1225   14.3013   -5.3994 C   0  0  0  0  0  0  0  0  0  0  0  0
    1.8391   13.7284   -7.0860 C   0  0  0  0  0  0  0  0  0  0  0  0
    0.4194   11.9022   -6.1463 C   0  0  0  0  0  0  0  0  0  0  0  0
   -0.7127   11.6044   -5.3171 O   0  0  0  0  0  0  0  0  0  0  0  0
   -0.7690   10.2936   -4.9300 C   0  0  0  0  0  0  0  0  0  0  0  0
   -1.8306   10.1098   -3.8423 C   0  0  1  0  0  0  0  0  0  0  0  0
   -2.3925    8.7515   -3.9287 N   0  0  0  0  0  0  0  0  0  0  0  0
   -3.3405    8.5101   -2.9112 N   0  0  0  0  0  0  0  0  0  0  0  0
   -4.6677    8.1311   -3.1329 C   0  0  0  0  0  0  0  0  0  0  0  0
   -5.2830    8.4986   -4.5016 C   0  0  1  0  0  0  0  0  0  0  0  0
   -6.3958    7.6050   -4.7961 N   0  0  0  0  0  0  0  0  0  0  0  0
   -6.1608    6.3640   -5.3572 C   0  0  0  0  0  0  0  0  0  0  0  0
   -7.4046    5.4480   -5.4041 C   0  0  2  0  0  0  0  0  0  0  0  0
   -7.0389    3.9637   -5.1436 C   0  0  0  0  0  0  0  0  0  0  0  0
   -8.2629    3.0531   -5.3023 C   0  0  0  0  0  0  0  0  0  0  0  0
   -6.4691    3.7891   -3.7285 C   0  0  0  0  0  0  0  0  0  0  0  0
   -8.1005    5.6853   -6.6943 N   0  0  0  0  0  0  0  0  0  0  0  0
   -9.0626    6.7056   -6.7071 C   0  0  0  0  0  0  0  0  0  0  0  0
   -9.8594    6.9531   -8.0088 C   0  0  0  0  0  0  0  0  0  0  0  0
  -10.6324    8.2746   -7.9196 C   0  0  0  0  0  0  0  0  0  0  0  0
  -11.5268    8.4751   -9.1354 C   0  0  0  0  0  0  0  0  0  0  0  0
  -12.3856    7.3155   -9.3521 N   0  0  0  0  0  0  0  0  0  0  0  0
  -13.7062    7.3998   -9.7850 C   0  0  0  0  0  0  0  0  0  0  0  0
  -14.3737    8.6809   -9.7359 C   0  0  0  0  0  0  0  0  0  0  0  0
  -14.9794    9.7177   -9.6665 C   0  0  0  0  0  0  0  0  0  0  0  0
  -15.7799   10.9599   -9.5628 C   0  0  0  0  0  0  0  0  0  0  0  0
  -16.9214   10.8185   -8.6148 N   0  0  0  0  0  0  0  0  0  0  0  0
  -16.5247   10.6718   -7.2115 C   0  0  0  0  0  0  0  0  0  0  0  0
  -17.8605    9.7451   -8.9655 C   0  0  0  0  0  0  0  0  0  0  0  0
  -14.8403   12.1112   -9.1317 C   0  0  0  0  0  0  0  0  0  0  0  0
  -16.3024   11.3308  -10.9715 C   0  0  0  0  0  0  0  0  0  0  0  0
  -14.3556    6.4401  -10.1854 O   0  0  0  0  0  0  0  0  0  0  0  0
  -11.7056    6.0316   -9.4506 C   0  0  0  0  0  0  0  0  0  0  0  0
  -10.8251    5.7851   -8.2358 C   0  0  0  0  0  0  0  0  0  0  0  0
   -9.3265    7.3402   -5.6787 O   0  0  0  0  0  0  0  0  0  0  0  0
   -7.3894    5.3181   -7.9197 C   0  0  0  0  0  0  0  0  0  0  0  0
   -5.0848    6.0664   -5.8735 O   0  0  0  0  0  0  0  0  0  0  0  0
   -5.7699    9.9525   -4.4237 C   0  0  0  0  0  0  0  0  0  0  0  0
   -5.3776   10.7955   -5.6374 C   0  0  1  0  0  0  0  0  0  0  0  0
   -5.9261   10.2372   -6.9736 C   0  0  0  0  0  0  0  0  0  0  0  0
   -5.7579   11.2295   -8.0543 N   0  0  0  0  0  0  0  0  0  0  0  0
   -6.2736   12.5756   -7.7176 C   0  0  0  0  0  0  0  0  0  0  0  0
   -6.7597   12.6579   -6.2628 C   0  0  0  0  0  0  0  0  0  0  0  0
   -5.7836   12.1537   -5.3450 O   0  0  0  0  0  0  0  0  0  0  0  0
   -5.3780    7.6498   -2.2419 O   0  0  0  0  0  0  0  0  0  0  0  0
   -2.7722    8.5287   -1.5633 C   0  0  0  0  0  0  0  0  0  0  0  0
   -2.1232    9.8954   -1.3196 C   0  0  0  0  0  0  0  0  0  0  0  0
   -1.1730   10.2808   -2.4625 C   0  0  0  0  0  0  0  0  0  0  0  0
   -0.0402    9.4085   -5.3618 O   0  0  0  0  0  0  0  0  0  0  0  0
   -2.1531   11.9314   -8.9123 C   0  0  0  0  0  0  0  0  0  0  0  0
   -2.0328   11.0674   -9.9965 C   0  0  0  0  0  0  0  0  0  0  0  0
   -3.0722   10.2056  -10.3828 C   0  0  0  0  0  0  0  0  0  0  0  0
   -4.2852   10.2819   -9.6956 C   0  0  0  0  0  0  0  0  0  0  0  0
   -4.4805   11.1756   -8.6425 C   0  0  0  0  0  0  0  0  0  0  0  0
   -3.3921   11.9656   -8.2238 C   0  0  0  0  0  0  0  0  0  0  0  0
   -9.0352    7.0537   -9.0995 F   0  0  0  0  0  0  0  0  0  0  0  0
    0.7955   16.2568  -12.8891 H   0  0  0  0  0  0  0  0  0  0  0  0
    0.2044   14.6971  -13.5120 H   0  0  0  0  0  0  0  0  0  0  0  0
   -0.9292   15.9631  -13.0210 H   0  0  0  0  0  0  0  0  0  0  0  0
   -0.9080   14.3260  -11.2460 H   0  0  0  0  0  0  0  0  0  0  0  0
   -2.0414   15.8501   -9.9413 H   0  0  0  0  0  0  0  0  0  0  0  0
   -1.2349   17.3573   -9.4624 H   0  0  0  0  0  0  0  0  0  0  0  0
   -1.6173   17.0883  -11.1698 H   0  0  0  0  0  0  0  0  0  0  0  0
    4.4373   14.1917  -11.7981 H   0  0  0  0  0  0  0  0  0  0  0  0
    4.4444   12.0084  -10.5851 H   0  0  0  0  0  0  0  0  0  0  0  0
    2.2995   11.1611   -9.6634 H   0  0  0  0  0  0  0  0  0  0  0  0
   -1.1402   10.4717  -12.4196 H   0  0  0  0  0  0  0  0  0  0  0  0
    0.4496   11.1790  -12.2299 H   0  0  0  0  0  0  0  0  0  0  0  0
    1.1144    9.2748  -10.6929 H   0  0  0  0  0  0  0  0  0  0  0  0
   -0.4817    8.5553  -10.9167 H   0  0  0  0  0  0  0  0  0  0  0  0
    0.6228    8.6984  -12.2947 H   0  0  0  0  0  0  0  0  0  0  0  0
   -0.3730   14.6327   -8.2010 H   0  0  0  0  0  0  0  0  0  0  0  0
   -1.5924   13.9051   -7.2143 H   0  0  0  0  0  0  0  0  0  0  0  0
    0.8235   14.1157   -4.5760 H   0  0  0  0  0  0  0  0  0  0  0  0
    0.2127   15.3581   -5.6800 H   0  0  0  0  0  0  0  0  0  0  0  0
   -0.8914   14.1506   -5.0095 H   0  0  0  0  0  0  0  0  0  0  0  0
    2.5431   13.7548   -6.2435 H   0  0  0  0  0  0  0  0  0  0  0  0
    2.2249   12.9811   -7.7775 H   0  0  0  0  0  0  0  0  0  0  0  0
    1.8761   14.7101   -7.5719 H   0  0  0  0  0  0  0  0  0  0  0  0
    0.4535   11.2225   -7.0052 H   0  0  0  0  0  0  0  0  0  0  0  0
    1.3187   11.7155   -5.5435 H   0  0  0  0  0  0  0  0  0  0  0  0
   -2.6288   10.8455   -3.9947 H   0  0  0  0  0  0  0  0  0  0  0  0
   -2.6724    8.4869   -4.8718 H   0  0  0  0  0  0  0  0  0  0  0  0
   -4.5429    8.3670   -5.2917 H   0  0  0  0  0  0  0  0  0  0  0  0
   -7.2151    7.6779   -4.1978 H   0  0  0  0  0  0  0  0  0  0  0  0
   -8.0760    5.7472   -4.5894 H   0  0  0  0  0  0  0  0  0  0  0  0
   -6.2661    3.6266   -5.8456 H   0  0  0  0  0  0  0  0  0  0  0  0
   -9.0785    3.3692   -4.6443 H   0  0  0  0  0  0  0  0  0  0  0  0
   -8.6340    3.0602   -6.3314 H   0  0  0  0  0  0  0  0  0  0  0  0
   -8.0106    2.0172   -5.0547 H   0  0  0  0  0  0  0  0  0  0  0  0
   -7.1816    4.1263   -2.9684 H   0  0  0  0  0  0  0  0  0  0  0  0
   -6.2386    2.7369   -3.5305 H   0  0  0  0  0  0  0  0  0  0  0  0
   -5.5418    4.3560   -3.5990 H   0  0  0  0  0  0  0  0  0  0  0  0
  -11.2535    8.2946   -7.0143 H   0  0  0  0  0  0  0  0  0  0  0  0
   -9.9308    9.1148   -7.8505 H   0  0  0  0  0  0  0  0  0  0  0  0
  -12.1110    9.3892   -9.0060 H   0  0  0  0  0  0  0  0  0  0  0  0
  -10.9245    8.6066  -10.0417 H   0  0  0  0  0  0  0  0  0  0  0  0
  -17.4073   10.5617   -6.5705 H   0  0  0  0  0  0  0  0  0  0  0  0
  -15.8805    9.8028   -7.0428 H   0  0  0  0  0  0  0  0  0  0  0  0
  -16.0151   11.5667   -6.8428 H   0  0  0  0  0  0  0  0  0  0  0  0
  -18.7162    9.7504   -8.2797 H   0  0  0  0  0  0  0  0  0  0  0  0
  -18.2903    9.8849   -9.9611 H   0  0  0  0  0  0  0  0  0  0  0  0
  -17.4040    8.7509   -8.9159 H   0  0  0  0  0  0  0  0  0  0  0  0
  -14.2877   11.8780   -8.2136 H   0  0  0  0  0  0  0  0  0  0  0  0
  -14.0809   12.3133   -9.8987 H   0  0  0  0  0  0  0  0  0  0  0  0
  -15.3995   13.0409   -8.9704 H   0  0  0  0  0  0  0  0  0  0  0  0
  -16.9637   12.2046  -10.9331 H   0  0  0  0  0  0  0  0  0  0  0  0
  -15.4741   11.5773  -11.6487 H   0  0  0  0  0  0  0  0  0  0  0  0
  -16.8479   10.5095  -11.4492 H   0  0  0  0  0  0  0  0  0  0  0  0
  -12.4271    5.2142   -9.5433 H   0  0  0  0  0  0  0  0  0  0  0  0
  -11.1091    6.0435  -10.3699 H   0  0  0  0  0  0  0  0  0  0  0  0
  -10.2841    4.8446   -8.3819 H   0  0  0  0  0  0  0  0  0  0  0  0
  -11.4548    5.6525   -7.3472 H   0  0  0  0  0  0  0  0  0  0  0  0
   -6.7433    4.4528   -7.7614 H   0  0  0  0  0  0  0  0  0  0  0  0
   -8.0927    5.0514   -8.7095 H   0  0  0  0  0  0  0  0  0  0  0  0
   -6.7880    6.1710   -8.2491 H   0  0  0  0  0  0  0  0  0  0  0  0
   -6.8598    9.9987   -4.2861 H   0  0  0  0  0  0  0  0  0  0  0  0
   -5.3604   10.4525   -3.5330 H   0  0  0  0  0  0  0  0  0  0  0  0
   -4.2841   10.8233   -5.6926 H   0  0  0  0  0  0  0  0  0  0  0  0
   -5.4578    9.2792   -7.2315 H   0  0  0  0  0  0  0  0  0  0  0  0
   -6.9997   10.0290   -6.8781 H   0  0  0  0  0  0  0  0  0  0  0  0
   -5.5331   13.3645   -7.8890 H   0  0  0  0  0  0  0  0  0  0  0  0
   -7.1144   12.7981   -8.3849 H   0  0  0  0  0  0  0  0  0  0  0  0
   -6.9593   13.7018   -5.9986 H   0  0  0  0  0  0  0  0  0  0  0  0
   -7.6984   12.1086   -6.1221 H   0  0  0  0  0  0  0  0  0  0  0  0
   -3.5440    8.3415   -0.8084 H   0  0  0  0  0  0  0  0  0  0  0  0
   -2.0299    7.7237   -1.4955 H   0  0  0  0  0  0  0  0  0  0  0  0
   -2.9100   10.6578   -1.2466 H   0  0  0  0  0  0  0  0  0  0  0  0
   -1.5834    9.8932   -0.3660 H   0  0  0  0  0  0  0  0  0  0  0  0
   -0.2694    9.6587   -2.3981 H   0  0  0  0  0  0  0  0  0  0  0  0
   -0.8406   11.3180   -2.3315 H   0  0  0  0  0  0  0  0  0  0  0  0
   -2.9648    9.5179  -11.2140 H   0  0  0  0  0  0  0  0  0  0  0  0
   -5.1103    9.6500  -10.0164 H   0  0  0  0  0  0  0  0  0  0  0  0
   -3.4990   12.6334   -7.3765 H   0  0  0  0  0  0  0  0  0  0  0  0
  1  2  1  0
  2  3  1  0
  2  5  1  0
  3  4  1  0
  5  6  2  0
  5 10  1  0
  6  7  1  0
  7  8  2  0
  8  9  1  0
  9 10  2  0
 10 11  1  0
 11 12  1  0
 11 15  2  0
 12 13  1  0
 12 68  1  0
 13 14  1  0
 15 16  1  0
 15 67  1  0
 16 17  1  0
 17 18  1  0
 17 19  1  0
 17 20  1  0
 20 21  1  0
 21 22  1  0
 22 23  1  0
 22 66  2  0
 23 24  1  0
 23 65  1  0
 24 25  1  0
 25 26  1  0
 25 63  1  0
 26 27  1  0
 26 62  2  0
 27 28  1  0
 27 55  1  0
 28 29  1  0
 29 30  1  0
 29 54  2  0
 30 31  1  0
 30 34  1  0
 31 32  1  0
 31 33  1  0
 34 35  1  0
 34 53  1  0
 35 36  1  0
 35 52  2  0
 36 37  1  0
 36 51  1  0
 36 73  1  0
 37 38  1  0
 38 39  1  0
 39 40  1  0
 39 50  1  0
 40 41  1  0
 40 49  2  0
 42 43  1  0
 43 44  1  0
 43 47  1  0
 43 48  1  0
 44 45  1  0
 44 46  1  0
 50 51  1  0
 55 56  1  0
 56 57  1  0
 56 61  1  0
 57 58  1  0
 58 59  1  0
 58 71  1  0
 59 60  1  0
 60 61  1  0
 63 64  1  0
 64 65  1  0
 67 68  2  0
 67 72  1  0
 68 69  1  0
 69 70  2  0
 70 71  1  0
 71 72  2  0
 41 42  3  0
  1 74  1  0
  1 75  1  0
  1 76  1  0
  2 77  1  6
  4 78  1  0
  4 79  1  0
  4 80  1  0
  7 81  1  0
  8 82  1  0
  9 83  1  0
 13 84  1  0
 13 85  1  0
 14 86  1  0
 14 87  1  0
 14 88  1  0
 16 89  1  0
 16 90  1  0
 18 91  1  0
 18 92  1  0
 18 93  1  0
 19 94  1  0
 19 95  1  0
 19 96  1  0
 20 97  1  0
 20 98  1  0
 23 99  1  6
 24100  1  0
 27101  1  6
 28102  1  0
 30103  1  1
 31104  1  0
 32105  1  0
 32106  1  0
 32107  1  0
 33108  1  0
 33109  1  0
 33110  1  0
 37111  1  0
 37112  1  0
 38113  1  0
 38114  1  0
 45115  1  0
 45116  1  0
 45117  1  0
 46118  1  0
 46119  1  0
 46120  1  0
 47121  1  0
 47122  1  0
 47123  1  0
 48124  1  0
 48125  1  0
 48126  1  0
 50127  1  0
 50128  1  0
 51129  1  0
 51130  1  0
 53131  1  0
 53132  1  0
 53133  1  0
 55134  1  0
 55135  1  0
 56136  1  6
 57137  1  0
 57138  1  0
 59139  1  0
 59140  1  0
 60141  1  0
 60142  1  0
 63143  1  0
 63144  1  0
 64145  1  0
 64146  1  0
 65147  1  0
 65148  1  0
 69149  1  0
 70150  1  0
 72151  1  0
M  END
$$$$
