 xtb: 6.7.1 (edcfbbe)
          08182523243D

151157  0     0  0            999 V2000
    0.3173   15.2522  -12.7348 C   0  0  0  0  0  0  0  0  0  0  0  0
    0.0939   14.7816  -11.2964 C   0  0  0  0  0  0  0  0  0  0  0  0
   -0.0200   15.8540  -10.3720 O   0  0  0  0  0  0  0  0  0  0  0  0
   -1.1882   16.6220  -10.5087 C   0  0  0  0  0  0  0  0  0  0  0  0
    1.2716   13.9455  -10.8381 C   0  0  0  0  0  0  0  0  0  0  0  0
    2.4692   14.3908  -11.1809 N   0  0  0  0  0  0  0  0  0  0  0  0
    3.5418   13.7075  -10.8328 C   0  0  0  0  0  0  0  0  0  0  0  0
    3.4843   12.5141  -10.1290 C   0  0  0  0  0  0  0  0  0  0  0  0
    2.2374   12.0391   -9.7658 C   0  0  0  0  0  0  0  0  0  0  0  0
    1.0948   12.7625  -10.1073 C   0  0  0  0  0  0  0  0  0  0  0  0
   -0.2358   12.2648   -9.7387 C   0  0  0  0  0  0  0  0  0  0  0  0
   -0.7640   11.1722  -10.3953 N   0  0  0  0  0  0  0  0  0  0  0  0
   -0.1322   10.4053  -11.4355 C   0  0  0  0  0  0  0  0  0  0  0  0
    0.3924    9.0648  -10.9216 C   0  0  0  0  0  0  0  0  0  0  0  0
   -1.1334   12.7394   -8.8104 C   0  0  0  0  0  0  0  0  0  0  0  0
   -1.0133   13.8947   -7.8667 C   0  0  0  0  0  0  0  0  0  0  0  0
    0.0316   13.7882   -6.7241 C   0  0  0  0  0  0  0  0  0  0  0  0
   -0.4527   14.6379   -5.5452 C   0  0  0  0  0  0  0  0  0  0  0  0
    1.3860   14.3363   -7.1872 C   0  0  0  0  0  0  0  0  0  0  0  0
    0.2590   12.3385   -6.2596 C   0  0  0  0  0  0  0  0  0  0  0  0
   -0.6595   11.9181   -5.2453 O   0  0  0  0  0  0  0  0  0  0  0  0
   -1.2291   10.7305   -5.3675 C   0  0  0  0  0  0  0  0  0  0  0  0
   -2.0069   10.3566   -4.1072 C   0  0  0  0  0  0  0  0  0  0  0  0
   -2.2243    8.9172   -4.1410 N   0  0  0  0  0  0  0  0  0  0  0  0
   -3.0239    8.4670   -3.0855 N   0  0  0  0  0  0  0  0  0  0  0  0
   -4.2952    8.0356   -3.1463 C   0  0  0  0  0  0  0  0  0  0  0  0
   -5.0112    8.1871   -4.4912 C   0  0  0  0  0  0  0  0  0  0  0  0
   -6.0983    7.2439   -4.5555 N   0  0  0  0  0  0  0  0  0  0  0  0
   -6.2991    6.4632   -5.6317 C   0  0  0  0  0  0  0  0  0  0  0  0
   -7.5459    5.5765   -5.5408 C   0  0  0  0  0  0  0  0  0  0  0  0
   -7.2154    4.1525   -5.0606 C   0  0  0  0  0  0  0  0  0  0  0  0
   -8.4613    3.2719   -5.1307 C   0  0  0  0  0  0  0  0  0  0  0  0
   -6.6902    4.2028   -3.6265 C   0  0  0  0  0  0  0  0  0  0  0  0
   -8.2323    5.6293   -6.8300 N   0  0  0  0  0  0  0  0  0  0  0  0
   -9.2218    6.5381   -6.9257 C   0  0  0  0  0  0  0  0  0  0  0  0
   -9.9934    6.6931   -8.2497 C   0  0  0  0  0  0  0  0  0  0  0  0
  -10.6270    8.0858   -8.3197 C   0  0  0  0  0  0  0  0  0  0  0  0
  -11.5238    8.2002   -9.5543 C   0  0  0  0  0  0  0  0  0  0  0  0
  -12.5097    7.1502   -9.5578 N   0  0  0  0  0  0  0  0  0  0  0  0
  -13.8448    7.3328   -9.4102 C   0  0  0  0  0  0  0  0  0  0  0  0
  -14.2783    8.7081   -9.3759 C   0  0  0  0  0  0  0  0  0  0  0  0
  -14.7771    9.8040   -9.3595 C   0  0  0  0  0  0  0  0  0  0  0  0
  -15.4302   11.1084   -9.2611 C   0  0  0  0  0  0  0  0  0  0  0  0
  -16.6667   11.0204   -8.4671 N   0  0  0  0  0  0  0  0  0  0  0  0
  -16.4412   10.6185   -7.0901 C   0  0  0  0  0  0  0  0  0  0  0  0
  -17.6809   10.1722   -9.0698 C   0  0  0  0  0  0  0  0  0  0  0  0
  -14.4592   12.1088   -8.6116 C   0  0  0  0  0  0  0  0  0  0  0  0
  -15.7510   11.6024  -10.6816 C   0  0  0  0  0  0  0  0  0  0  0  0
  -14.6411    6.4136   -9.3314 O   0  0  0  0  0  0  0  0  0  0  0  0
  -11.9573    5.8181   -9.5523 C   0  0  0  0  0  0  0  0  0  0  0  0
  -11.0804    5.6127   -8.3155 C   0  0  0  0  0  0  0  0  0  0  0  0
   -9.6082    7.1871   -5.9632 O   0  0  0  0  0  0  0  0  0  0  0  0
   -7.6169    4.9657   -7.9606 C   0  0  0  0  0  0  0  0  0  0  0  0
   -5.5831    6.4996   -6.6132 O   0  0  0  0  0  0  0  0  0  0  0  0
   -5.5356    9.6364   -4.5819 C   0  0  0  0  0  0  0  0  0  0  0  0
   -5.1055   10.3519   -5.8679 C   0  0  0  0  0  0  0  0  0  0  0  0
   -5.9469    9.9476   -7.0917 C   0  0  0  0  0  0  0  0  0  0  0  0
   -5.8031   10.9515   -8.1275 N   0  0  0  0  0  0  0  0  0  0  0  0
   -6.3928   12.2069   -7.6931 C   0  0  0  0  0  0  0  0  0  0  0  0
   -6.2688   12.4072   -6.1673 C   0  0  0  0  0  0  0  0  0  0  0  0
   -5.1210   11.7622   -5.6615 O   0  0  0  0  0  0  0  0  0  0  0  0
   -4.8783    7.5716   -2.1791 O   0  0  0  0  0  0  0  0  0  0  0  0
   -2.3317    8.6322   -1.8221 C   0  0  0  0  0  0  0  0  0  0  0  0
   -2.0227   10.1184   -1.6220 C   0  0  0  0  0  0  0  0  0  0  0  0
   -1.2355   10.6586   -2.8174 C   0  0  0  0  0  0  0  0  0  0  0  0
   -1.1535   10.0118   -6.3304 O   0  0  0  0  0  0  0  0  0  0  0  0
   -2.2926   11.9109   -8.9198 C   0  0  0  0  0  0  0  0  0  0  0  0
   -2.0216   10.9427   -9.9120 C   0  0  0  0  0  0  0  0  0  0  0  0
   -2.9667    9.9862  -10.2668 C   0  0  0  0  0  0  0  0  0  0  0  0
   -4.1882   10.0267   -9.6381 C   0  0  0  0  0  0  0  0  0  0  0  0
   -4.4876   10.9991   -8.6695 C   0  0  0  0  0  0  0  0  0  0  0  0
   -3.5402   11.9323   -8.2976 C   0  0  0  0  0  0  0  0  0  0  0  0
   -9.1661    6.5688   -9.3613 F   0  0  0  0  0  0  0  0  0  0  0  0
    1.1922   15.8944  -12.7664 H   0  0  0  0  0  0  0  0  0  0  0  0
    0.4886   14.3896  -13.3733 H   0  0  0  0  0  0  0  0  0  0  0  0
   -0.5496   15.7924  -13.1061 H   0  0  0  0  0  0  0  0  0  0  0  0
   -0.8248   14.1714  -11.2455 H   0  0  0  0  0  0  0  0  0  0  0  0
   -2.0825   15.9854  -10.5136 H   0  0  0  0  0  0  0  0  0  0  0  0
   -1.2202   17.2833   -9.6437 H   0  0  0  0  0  0  0  0  0  0  0  0
   -1.1784   17.2304  -11.4186 H   0  0  0  0  0  0  0  0  0  0  0  0
    4.4870   14.1335  -11.1429 H   0  0  0  0  0  0  0  0  0  0  0  0
    4.3834   11.9759   -9.8725 H   0  0  0  0  0  0  0  0  0  0  0  0
    2.1388   11.1217   -9.2023 H   0  0  0  0  0  0  0  0  0  0  0  0
   -0.8672   10.2298  -12.2288 H   0  0  0  0  0  0  0  0  0  0  0  0
    0.6883   10.9951  -11.8541 H   0  0  0  0  0  0  0  0  0  0  0  0
    1.1671    9.2164  -10.1750 H   0  0  0  0  0  0  0  0  0  0  0  0
   -0.4128    8.4962  -10.4643 H   0  0  0  0  0  0  0  0  0  0  0  0
    0.8097    8.4892  -11.7437 H   0  0  0  0  0  0  0  0  0  0  0  0
   -0.7764   14.7973   -8.4320 H   0  0  0  0  0  0  0  0  0  0  0  0
   -1.9968   14.0325   -7.4146 H   0  0  0  0  0  0  0  0  0  0  0  0
    0.2638   14.5977   -4.7278 H   0  0  0  0  0  0  0  0  0  0  0  0
   -0.5639   15.6731   -5.8588 H   0  0  0  0  0  0  0  0  0  0  0  0
   -1.4094   14.2781   -5.1755 H   0  0  0  0  0  0  0  0  0  0  0  0
    2.0573   14.4555   -6.3387 H   0  0  0  0  0  0  0  0  0  0  0  0
    1.8544   13.6668   -7.9005 H   0  0  0  0  0  0  0  0  0  0  0  0
    1.2612   15.3039   -7.6660 H   0  0  0  0  0  0  0  0  0  0  0  0
    0.1905   11.6471   -7.1042 H   0  0  0  0  0  0  0  0  0  0  0  0
    1.2543   12.2570   -5.8086 H   0  0  0  0  0  0  0  0  0  0  0  0
   -2.9438   10.9408   -4.1164 H   0  0  0  0  0  0  0  0  0  0  0  0
   -2.5380    8.5967   -5.0498 H   0  0  0  0  0  0  0  0  0  0  0  0
   -4.3621    7.9536   -5.3406 H   0  0  0  0  0  0  0  0  0  0  0  0
   -6.6315    7.1324   -3.7053 H   0  0  0  0  0  0  0  0  0  0  0  0
   -8.2441    6.0244   -4.8257 H   0  0  0  0  0  0  0  0  0  0  0  0
   -6.4288    3.7248   -5.6904 H   0  0  0  0  0  0  0  0  0  0  0  0
   -9.2536    3.6958   -4.5176 H   0  0  0  0  0  0  0  0  0  0  0  0
   -8.8278    3.1842   -6.1497 H   0  0  0  0  0  0  0  0  0  0  0  0
   -8.2356    2.2747   -4.7609 H   0  0  0  0  0  0  0  0  0  0  0  0
   -7.4335    4.6346   -2.9597 H   0  0  0  0  0  0  0  0  0  0  0  0
   -6.4700    3.1957   -3.2804 H   0  0  0  0  0  0  0  0  0  0  0  0
   -5.7781    4.7898   -3.5567 H   0  0  0  0  0  0  0  0  0  0  0  0
  -11.2006    8.2476   -7.4076 H   0  0  0  0  0  0  0  0  0  0  0  0
   -9.8333    8.8328   -8.3685 H   0  0  0  0  0  0  0  0  0  0  0  0
  -12.0268    9.1685   -9.5675 H   0  0  0  0  0  0  0  0  0  0  0  0
  -10.9068    8.1072  -10.4566 H   0  0  0  0  0  0  0  0  0  0  0  0
  -17.4031   10.5974   -6.5799 H   0  0  0  0  0  0  0  0  0  0  0  0
  -15.9809    9.6236   -7.0035 H   0  0  0  0  0  0  0  0  0  0  0  0
  -15.8132   11.3463   -6.5828 H   0  0  0  0  0  0  0  0  0  0  0  0
  -18.5445   10.1507   -8.4069 H   0  0  0  0  0  0  0  0  0  0  0  0
  -18.0034   10.5898  -10.0202 H   0  0  0  0  0  0  0  0  0  0  0  0
  -17.3379    9.1399   -9.2268 H   0  0  0  0  0  0  0  0  0  0  0  0
  -14.0112   11.7036   -7.7085 H   0  0  0  0  0  0  0  0  0  0  0  0
  -13.6556   12.3446   -9.3052 H   0  0  0  0  0  0  0  0  0  0  0  0
  -14.9960   13.0220   -8.3687 H   0  0  0  0  0  0  0  0  0  0  0  0
  -16.3938   12.4766  -10.6201 H   0  0  0  0  0  0  0  0  0  0  0  0
  -14.8305   11.8741  -11.1927 H   0  0  0  0  0  0  0  0  0  0  0  0
  -16.2430   10.8325  -11.2692 H   0  0  0  0  0  0  0  0  0  0  0  0
  -12.7886    5.1102   -9.5548 H   0  0  0  0  0  0  0  0  0  0  0  0
  -11.3544    5.6768  -10.4569 H   0  0  0  0  0  0  0  0  0  0  0  0
  -10.6275    4.6210   -8.3475 H   0  0  0  0  0  0  0  0  0  0  0  0
  -11.6854    5.6896   -7.4109 H   0  0  0  0  0  0  0  0  0  0  0  0
   -6.9295    4.2110   -7.5943 H   0  0  0  0  0  0  0  0  0  0  0  0
   -8.3668    4.4812   -8.5839 H   0  0  0  0  0  0  0  0  0  0  0  0
   -7.0471    5.6707   -8.5669 H   0  0  0  0  0  0  0  0  0  0  0  0
   -6.6257    9.6183   -4.5180 H   0  0  0  0  0  0  0  0  0  0  0  0
   -5.1744   10.2224   -3.7322 H   0  0  0  0  0  0  0  0  0  0  0  0
   -4.0551   10.1221   -6.0905 H   0  0  0  0  0  0  0  0  0  0  0  0
   -5.6123    8.9781   -7.4621 H   0  0  0  0  0  0  0  0  0  0  0  0
   -7.0069    9.8711   -6.8295 H   0  0  0  0  0  0  0  0  0  0  0  0
   -5.9187   13.0239   -8.2375 H   0  0  0  0  0  0  0  0  0  0  0  0
   -7.4564   12.1881   -7.9647 H   0  0  0  0  0  0  0  0  0  0  0  0
   -6.1433   13.4620   -5.9151 H   0  0  0  0  0  0  0  0  0  0  0  0
   -7.1679   12.0340   -5.6576 H   0  0  0  0  0  0  0  0  0  0  0  0
   -2.9789    8.2457   -1.0347 H   0  0  0  0  0  0  0  0  0  0  0  0
   -1.4037    8.0555   -1.8575 H   0  0  0  0  0  0  0  0  0  0  0  0
   -2.9607   10.6689   -1.5215 H   0  0  0  0  0  0  0  0  0  0  0  0
   -1.4499   10.2509   -0.7043 H   0  0  0  0  0  0  0  0  0  0  0  0
   -0.2658   10.1607   -2.8687 H   0  0  0  0  0  0  0  0  0  0  0  0
   -1.0745   11.7316   -2.7227 H   0  0  0  0  0  0  0  0  0  0  0  0
   -2.7615    9.2397  -11.0191 H   0  0  0  0  0  0  0  0  0  0  0  0
   -4.9532    9.3088   -9.8901 H   0  0  0  0  0  0  0  0  0  0  0  0
   -3.7525   12.6604   -7.5295 H   0  0  0  0  0  0  0  0  0  0  0  0
  1  2  1  0  0  0  0
  2  3  1  0  0  0  0
  3  4  1  0  0  0  0
  2  5  1  0  0  0  0
  5  6  4  0  0  0  0
  6  7  4  0  0  0  0
  7  8  4  0  0  0  0
  8  9  4  0  0  0  0
  5 10  4  0  0  0  0
  9 10  4  0  0  0  0
 10 11  1  0  0  0  0
 11 12  1  0  0  0  0
 12 13  1  0  0  0  0
 13 14  1  0  0  0  0
 11 15  2  0  0  0  0
 15 16  1  0  0  0  0
 16 17  1  0  0  0  0
 17 18  1  0  0  0  0
 17 19  1  0  0  0  0
 17 20  1  0  0  0  0
 20 21  1  0  0  0  0
 21 22  1  0  0  0  0
 22 23  1  0  0  0  0
 23 24  1  0  0  0  0
 24 25  1  0  0  0  0
 25 26  4  0  0  0  0
 26 27  1  0  0  0  0
 27 28  1  0  0  0  0
 28 29  4  0  0  0  0
 29 30  1  0  0  0  0
 30 31  1  0  0  0  0
 31 32  1  0  0  0  0
 31 33  1  0  0  0  0
 30 34  1  0  0  0  0
 34 35  4  0  0  0  0
 35 36  1  0  0  0  0
 36 37  1  0  0  0  0
 37 38  1  0  0  0  0
 38 39  1  0  0  0  0
 39 40  4  0  0  0  0
 40 41  1  0  0  0  0
 41 42  3  0  0  0  0
 42 43  1  0  0  0  0
 43 44  1  0  0  0  0
 44 45  1  0  0  0  0
 44 46  1  0  0  0  0
 43 47  1  0  0  0  0
 43 48  1  0  0  0  0
 40 49  2  0  0  0  0
 39 50  1  0  0  0  0
 36 51  1  0  0  0  0
 50 51  1  0  0  0  0
 35 52  2  0  0  0  0
 34 53  1  0  0  0  0
 29 54  2  0  0  0  0
 27 55  1  0  0  0  0
 55 56  1  0  0  0  0
 56 57  1  0  0  0  0
 57 58  1  0  0  0  0
 58 59  1  0  0  0  0
 59 60  1  0  0  0  0
 56 61  1  0  0  0  0
 60 61  1  0  0  0  0
 26 62  2  0  0  0  0
 25 63  1  0  0  0  0
 63 64  1  0  0  0  0
 23 65  1  0  0  0  0
 64 65  1  0  0  0  0
 22 66  2  0  0  0  0
 15 67  4  0  0  0  0
 12 68  1  0  0  0  0
 67 68  4  0  0  0  0
 68 69  4  0  0  0  0
 69 70  2  0  0  0  0
 58 71  1  0  0  0  0
 70 71  4  0  0  0  0
 67 72  4  0  0  0  0
 71 72  4  0  0  0  0
 36 73  1  0  0  0  0
  1 74  1  0  0  0  0
  1 75  1  0  0  0  0
  1 76  1  0  0  0  0
  2 77  1  0  0  0  0
  4 78  1  0  0  0  0
  4 79  1  0  0  0  0
  4 80  1  0  0  0  0
  7 81  1  0  0  0  0
  8 82  1  0  0  0  0
  9 83  1  0  0  0  0
 13 84  1  0  0  0  0
 13 85  1  0  0  0  0
 14 86  1  0  0  0  0
 14 87  1  0  0  0  0
 14 88  1  0  0  0  0
 16 89  1  0  0  0  0
 16 90  1  0  0  0  0
 18 91  1  0  0  0  0
 18 92  1  0  0  0  0
 18 93  1  0  0  0  0
 19 94  1  0  0  0  0
 19 95  1  0  0  0  0
 19 96  1  0  0  0  0
 20 97  1  0  0  0  0
 20 98  1  0  0  0  0
 23 99  1  0  0  0  0
 24100  1  0  0  0  0
 27101  1  0  0  0  0
 28102  1  0  0  0  0
 30103  1  0  0  0  0
 31104  1  0  0  0  0
 32105  1  0  0  0  0
 32106  1  0  0  0  0
 32107  1  0  0  0  0
 33108  1  0  0  0  0
 33109  1  0  0  0  0
 33110  1  0  0  0  0
 37111  1  0  0  0  0
 37112  1  0  0  0  0
 38113  1  0  0  0  0
 38114  1  0  0  0  0
 45115  1  0  0  0  0
 45116  1  0  0  0  0
 45117  1  0  0  0  0
 46118  1  0  0  0  0
 46119  1  0  0  0  0
 46120  1  0  0  0  0
 47121  1  0  0  0  0
 47122  1  0  0  0  0
 47123  1  0  0  0  0
 48124  1  0  0  0  0
 48125  1  0  0  0  0
 48126  1  0  0  0  0
 50127  1  0  0  0  0
 50128  1  0  0  0  0
 51129  1  0  0  0  0
 51130  1  0  0  0  0
 53131  1  0  0  0  0
 53132  1  0  0  0  0
 53133  1  0  0  0  0
 55134  1  0  0  0  0
 55135  1  0  0  0  0
 56136  1  0  0  0  0
 57137  1  0  0  0  0
 57138  1  0  0  0  0
 59139  1  0  0  0  0
 59140  1  0  0  0  0
 60141  1  0  0  0  0
 60142  1  0  0  0  0
 63143  1  0  0  0  0
 63144  1  0  0  0  0
 64145  1  0  0  0  0
 64146  1  0  0  0  0
 65147  1  0  0  0  0
 65148  1  0  0  0  0
 69149  1  0  0  0  0
 70150  1  0  0  0  0
 72151  1  0  0  0  0
M  END
$$$$
