 energy: -221.290879358904 gnorm: 0.000263923352 xtb: 6.7.1 (edcfbbe)
          08232517293D

151157  0     0  0            999 V2000
   -0.8072    4.9109   -2.9063 C   0  0  0  0  0  0  0  0  0  0  0  0
    0.4466    4.2860   -3.5307 C   0  0  0  0  0  0  0  0  0  0  0  0
    0.5396    2.8965   -3.2602 O   0  0  0  0  0  0  0  0  0  0  0  0
   -0.0747    2.0849   -4.2246 C   0  0  0  0  0  0  0  0  0  0  0  0
    1.6813    5.0157   -3.0485 C   0  0  0  0  0  0  0  0  0  0  0  0
    2.1775    5.8443   -3.9594 N   0  0  0  0  0  0  0  0  0  0  0  0
    3.2003    6.6207   -3.6586 C   0  0  0  0  0  0  0  0  0  0  0  0
    3.7912    6.6305   -2.4059 C   0  0  0  0  0  0  0  0  0  0  0  0
    3.2900    5.7608   -1.4564 C   0  0  0  0  0  0  0  0  0  0  0  0
    2.2248    4.9118   -1.7629 C   0  0  0  0  0  0  0  0  0  0  0  0
    1.7492    4.0076   -0.7049 C   0  0  0  0  0  0  0  0  0  0  0  0
    1.0593    4.5318    0.3668 N   0  0  0  0  0  0  0  0  0  0  0  0
    0.5912    5.8853    0.5093 C   0  0  0  0  0  0  0  0  0  0  0  0
    1.3971    6.6681    1.5455 C   0  0  0  0  0  0  0  0  0  0  0  0
    1.9923    2.6671   -0.5048 C   0  0  0  0  0  0  0  0  0  0  0  0
    2.6648    1.6759   -1.4023 C   0  0  0  0  0  0  0  0  0  0  0  0
    4.1944    1.5177   -1.2476 C   0  0  0  0  0  0  0  0  0  0  0  0
    4.8952    2.8449   -1.5418 C   0  0  0  0  0  0  0  0  0  0  0  0
    4.6738    0.4652   -2.2506 C   0  0  0  0  0  0  0  0  0  0  0  0
    4.5858    1.1072    0.1881 C   0  0  0  0  0  0  0  0  0  0  0  0
    4.5827   -0.3047    0.4443 O   0  0  0  0  0  0  0  0  0  0  0  0
    5.7628   -0.9188    0.4090 C   0  0  0  0  0  0  0  0  0  0  0  0
    5.6675   -2.3588    0.9028 C   0  0  0  0  0  0  0  0  0  0  0  0
    4.6848   -3.1545    0.1794 N   0  0  0  0  0  0  0  0  0  0  0  0
    4.5051   -4.3795    0.8336 N   0  0  0  0  0  0  0  0  0  0  0  0
    3.6511   -4.6221    1.8539 C   0  0  0  0  0  0  0  0  0  0  0  0
    2.6511   -3.4975    2.1845 C   0  0  0  0  0  0  0  0  0  0  0  0
    1.3590   -3.8375    1.6233 N   0  0  0  0  0  0  0  0  0  0  0  0
    1.0377   -3.5135    0.3644 C   0  0  0  0  0  0  0  0  0  0  0  0
   -0.3564   -3.9613   -0.0826 C   0  0  0  0  0  0  0  0  0  0  0  0
   -0.2899   -5.2543   -0.9104 C   0  0  0  0  0  0  0  0  0  0  0  0
   -1.7029   -5.7371   -1.2345 C   0  0  0  0  0  0  0  0  0  0  0  0
    0.4598   -6.3357   -0.1327 C   0  0  0  0  0  0  0  0  0  0  0  0
   -0.9943   -2.8394   -0.7752 N   0  0  0  0  0  0  0  0  0  0  0  0
   -1.6577   -1.9860    0.0246 C   0  0  0  0  0  0  0  0  0  0  0  0
   -2.2914   -0.7068   -0.5499 C   0  0  0  0  0  0  0  0  0  0  0  0
   -3.3590   -0.1981    0.4241 C   0  0  0  0  0  0  0  0  0  0  0  0
   -3.9292    1.1377   -0.0481 C   0  0  0  0  0  0  0  0  0  0  0  0
   -2.8779    2.0977   -0.2687 N   0  0  0  0  0  0  0  0  0  0  0  0
   -2.7095    3.2346    0.4405 C   0  0  0  0  0  0  0  0  0  0  0  0
   -3.5590    3.3781    1.5956 C   0  0  0  0  0  0  0  0  0  0  0  0
   -4.1008    3.5494    2.6573 C   0  0  0  0  0  0  0  0  0  0  0  0
   -4.7325    3.8302    3.9452 C   0  0  0  0  0  0  0  0  0  0  0  0
   -4.5839    5.2475    4.3138 N   0  0  0  0  0  0  0  0  0  0  0  0
   -5.2821    6.1530    3.4192 C   0  0  0  0  0  0  0  0  0  0  0  0
   -3.1993    5.6622    4.4565 C   0  0  0  0  0  0  0  0  0  0  0  0
   -6.2211    3.4538    3.8742 C   0  0  0  0  0  0  0  0  0  0  0  0
   -4.0592    2.9410    5.0055 C   0  0  0  0  0  0  0  0  0  0  0  0
   -1.8862    4.0899    0.1563 O   0  0  0  0  0  0  0  0  0  0  0  0
   -1.8945    1.6779   -1.2363 C   0  0  0  0  0  0  0  0  0  0  0  0
   -1.2347    0.3812   -0.7640 C   0  0  0  0  0  0  0  0  0  0  0  0
   -1.7711   -2.1932    1.2260 O   0  0  0  0  0  0  0  0  0  0  0  0
   -0.6199   -2.6176   -2.1550 C   0  0  0  0  0  0  0  0  0  0  0  0
    1.7959   -2.8938   -0.3680 O   0  0  0  0  0  0  0  0  0  0  0  0
    2.5579   -3.3009    3.6962 C   0  0  0  0  0  0  0  0  0  0  0  0
    1.6021   -2.1745    4.1201 C   0  0  0  0  0  0  0  0  0  0  0  0
    1.5293   -1.0511    3.0840 C   0  0  0  0  0  0  0  0  0  0  0  0
    0.6360    0.0005    3.5257 N   0  0  0  0  0  0  0  0  0  0  0  0
   -0.6834   -0.5633    3.7870 C   0  0  0  0  0  0  0  0  0  0  0  0
   -0.5615   -1.7102    4.7905 C   0  0  0  0  0  0  0  0  0  0  0  0
    0.3129   -2.7167    4.3326 O   0  0  0  0  0  0  0  0  0  0  0  0
    3.6149   -5.6929    2.4320 O   0  0  0  0  0  0  0  0  0  0  0  0
    5.6767   -5.2162    0.6482 C   0  0  0  0  0  0  0  0  0  0  0  0
    6.8777   -4.5173    1.2931 C   0  0  0  0  0  0  0  0  0  0  0  0
    7.0064   -3.0909    0.7578 C   0  0  0  0  0  0  0  0  0  0  0  0
    6.8038   -0.3915    0.1176 O   0  0  0  0  0  0  0  0  0  0  0  0
    1.3925    2.3465    0.7491 C   0  0  0  0  0  0  0  0  0  0  0  0
    0.8089    3.5275    1.2563 C   0  0  0  0  0  0  0  0  0  0  0  0
    0.1219    3.5130    2.4664 C   0  0  0  0  0  0  0  0  0  0  0  0
    0.0568    2.3303    3.1666 C   0  0  0  0  0  0  0  0  0  0  0  0
    0.6568    1.1474    2.6945 C   0  0  0  0  0  0  0  0  0  0  0  0
    1.3059    1.1566    1.4718 C   0  0  0  0  0  0  0  0  0  0  0  0
   -2.9278   -0.9849   -1.7629 F   0  0  0  0  0  0  0  0  0  0  0  0
   -0.8355    4.7296   -1.8351 H   0  0  0  0  0  0  0  0  0  0  0  0
   -0.8084    5.9821   -3.0902 H   0  0  0  0  0  0  0  0  0  0  0  0
   -1.7014    4.4827   -3.3541 H   0  0  0  0  0  0  0  0  0  0  0  0
    0.4156    4.4433   -4.6195 H   0  0  0  0  0  0  0  0  0  0  0  0
   -1.1526    2.2696   -4.2942 H   0  0  0  0  0  0  0  0  0  0  0  0
    0.3704    2.2382   -5.2160 H   0  0  0  0  0  0  0  0  0  0  0  0
    0.0935    1.0555   -3.9124 H   0  0  0  0  0  0  0  0  0  0  0  0
    3.5479    7.2642   -4.4562 H   0  0  0  0  0  0  0  0  0  0  0  0
    4.6144    7.2908   -2.1822 H   0  0  0  0  0  0  0  0  0  0  0  0
    3.7225    5.7280   -0.4661 H   0  0  0  0  0  0  0  0  0  0  0  0
    0.6575    6.3800   -0.4628 H   0  0  0  0  0  0  0  0  0  0  0  0
   -0.4613    5.8461    0.8036 H   0  0  0  0  0  0  0  0  0  0  0  0
    1.3857    6.1550    2.5037 H   0  0  0  0  0  0  0  0  0  0  0  0
    2.4311    6.7796    1.2280 H   0  0  0  0  0  0  0  0  0  0  0  0
    0.9681    7.6585    1.6740 H   0  0  0  0  0  0  0  0  0  0  0  0
    2.2092    0.6995   -1.2223 H   0  0  0  0  0  0  0  0  0  0  0  0
    2.4618    1.9564   -2.4359 H   0  0  0  0  0  0  0  0  0  0  0  0
    4.6757    3.5680   -0.7617 H   0  0  0  0  0  0  0  0  0  0  0  0
    5.9728    2.7030   -1.5898 H   0  0  0  0  0  0  0  0  0  0  0  0
    4.5565    3.2483   -2.4928 H   0  0  0  0  0  0  0  0  0  0  0  0
    4.1624   -0.4825   -2.0934 H   0  0  0  0  0  0  0  0  0  0  0  0
    4.4699    0.8022   -3.2642 H   0  0  0  0  0  0  0  0  0  0  0  0
    5.7445    0.3019   -2.1502 H   0  0  0  0  0  0  0  0  0  0  0  0
    5.5969    1.4695    0.4000 H   0  0  0  0  0  0  0  0  0  0  0  0
    3.8848    1.5388    0.9052 H   0  0  0  0  0  0  0  0  0  0  0  0
    5.4106   -2.2807    1.9794 H   0  0  0  0  0  0  0  0  0  0  0  0
    3.7980   -2.6971   -0.0233 H   0  0  0  0  0  0  0  0  0  0  0  0
    2.9798   -2.5675    1.7152 H   0  0  0  0  0  0  0  0  0  0  0  0
    0.6955   -4.2754    2.2434 H   0  0  0  0  0  0  0  0  0  0  0  0
   -0.9654   -4.1500    0.8078 H   0  0  0  0  0  0  0  0  0  0  0  0
    0.2598   -5.0612   -1.8355 H   0  0  0  0  0  0  0  0  0  0  0  0
   -2.2175   -6.0233   -0.3197 H   0  0  0  0  0  0  0  0  0  0  0  0
   -2.2903   -4.9635   -1.7220 H   0  0  0  0  0  0  0  0  0  0  0  0
   -1.6625   -6.6038   -1.8899 H   0  0  0  0  0  0  0  0  0  0  0  0
   -0.0178   -6.5239    0.8265 H   0  0  0  0  0  0  0  0  0  0  0  0
    0.4558   -7.2630   -0.7005 H   0  0  0  0  0  0  0  0  0  0  0  0
    1.4946   -6.0546    0.0458 H   0  0  0  0  0  0  0  0  0  0  0  0
   -4.1562   -0.9387    0.5008 H   0  0  0  0  0  0  0  0  0  0  0  0
   -2.8992   -0.0849    1.4053 H   0  0  0  0  0  0  0  0  0  0  0  0
   -4.4622    0.9867   -0.9958 H   0  0  0  0  0  0  0  0  0  0  0  0
   -4.6296    1.5295    0.6916 H   0  0  0  0  0  0  0  0  0  0  0  0
   -5.1108    7.1720    3.7631 H   0  0  0  0  0  0  0  0  0  0  0  0
   -4.9382    6.0758    2.3772 H   0  0  0  0  0  0  0  0  0  0  0  0
   -6.3525    5.9675    3.4559 H   0  0  0  0  0  0  0  0  0  0  0  0
   -2.7211    5.1075    5.2597 H   0  0  0  0  0  0  0  0  0  0  0  0
   -2.6179    5.5315    3.5325 H   0  0  0  0  0  0  0  0  0  0  0  0
   -3.1850    6.7171    4.7269 H   0  0  0  0  0  0  0  0  0  0  0  0
   -6.7258    3.8157    4.7660 H   0  0  0  0  0  0  0  0  0  0  0  0
   -6.6987    3.8748    2.9937 H   0  0  0  0  0  0  0  0  0  0  0  0
   -6.3237    2.3724    3.8244 H   0  0  0  0  0  0  0  0  0  0  0  0
   -4.3709    3.2649    5.9949 H   0  0  0  0  0  0  0  0  0  0  0  0
   -4.3565    1.9051    4.8600 H   0  0  0  0  0  0  0  0  0  0  0  0
   -2.9763    2.9893    4.9336 H   0  0  0  0  0  0  0  0  0  0  0  0
   -2.3851    1.5128   -2.2021 H   0  0  0  0  0  0  0  0  0  0  0  0
   -1.1394    2.4575   -1.3388 H   0  0  0  0  0  0  0  0  0  0  0  0
   -0.7290    0.5568    0.1878 H   0  0  0  0  0  0  0  0  0  0  0  0
   -0.4855    0.0744   -1.4921 H   0  0  0  0  0  0  0  0  0  0  0  0
    0.4685   -2.5669   -2.2225 H   0  0  0  0  0  0  0  0  0  0  0  0
   -0.9827   -3.4353   -2.7785 H   0  0  0  0  0  0  0  0  0  0  0  0
   -1.0452   -1.6987   -2.5368 H   0  0  0  0  0  0  0  0  0  0  0  0
    2.2230   -4.2318    4.1570 H   0  0  0  0  0  0  0  0  0  0  0  0
    3.5587   -3.0815    4.0720 H   0  0  0  0  0  0  0  0  0  0  0  0
    1.9553   -1.7452    5.0744 H   0  0  0  0  0  0  0  0  0  0  0  0
    2.5250   -0.6238    2.9440 H   0  0  0  0  0  0  0  0  0  0  0  0
    1.1607   -1.4777    2.1402 H   0  0  0  0  0  0  0  0  0  0  0  0
   -1.3380    0.2097    4.1904 H   0  0  0  0  0  0  0  0  0  0  0  0
   -1.1251   -0.9694    2.8645 H   0  0  0  0  0  0  0  0  0  0  0  0
   -0.1989   -1.3220    5.7554 H   0  0  0  0  0  0  0  0  0  0  0  0
   -1.5307   -2.1908    4.9299 H   0  0  0  0  0  0  0  0  0  0  0  0
    5.4817   -6.1826    1.1126 H   0  0  0  0  0  0  0  0  0  0  0  0
    5.8340   -5.3370   -0.4252 H   0  0  0  0  0  0  0  0  0  0  0  0
    6.7291   -4.4926    2.3755 H   0  0  0  0  0  0  0  0  0  0  0  0
    7.7876   -5.0804    1.0871 H   0  0  0  0  0  0  0  0  0  0  0  0
    7.2644   -3.1119   -0.3014 H   0  0  0  0  0  0  0  0  0  0  0  0
    7.7867   -2.5457    1.2881 H   0  0  0  0  0  0  0  0  0  0  0  0
   -0.3529    4.4014    2.8538 H   0  0  0  0  0  0  0  0  0  0  0  0
   -0.4485    2.3051    4.1205 H   0  0  0  0  0  0  0  0  0  0  0  0
    1.7536    0.2705    1.0528 H   0  0  0  0  0  0  0  0  0  0  0  0
  1  2  1  0  0  0  0
  2  3  1  0  0  0  0
  2  5  1  0  0  0  0
  3  4  1  0  0  0  0
  5  6  2  0  0  0  0
  5 10  1  0  0  0  0
  6  7  1  0  0  0  0
  7  8  2  0  0  0  0
  8  9  1  0  0  0  0
  9 10  2  0  0  0  0
 10 11  1  0  0  0  0
 11 12  1  0  0  0  0
 11 15  2  0  0  0  0
 12 13  1  0  0  0  0
 12 68  1  0  0  0  0
 13 14  1  0  0  0  0
 15 16  1  0  0  0  0
 15 67  1  0  0  0  0
 16 17  1  0  0  0  0
 17 18  1  0  0  0  0
 17 19  1  0  0  0  0
 17 20  1  0  0  0  0
 20 21  1  0  0  0  0
 21 22  1  0  0  0  0
 22 23  1  0  0  0  0
 22 66  2  0  0  0  0
 23 24  1  0  0  0  0
 23 65  1  0  0  0  0
 24 25  1  0  0  0  0
 25 26  1  0  0  0  0
 25 63  1  0  0  0  0
 26 27  1  0  0  0  0
 26 62  2  0  0  0  0
 27 28  1  0  0  0  0
 27 55  1  0  0  0  0
 28 29  1  0  0  0  0
 29 30  1  0  0  0  0
 29 54  2  0  0  0  0
 30 31  1  0  0  0  0
 30 34  1  0  0  0  0
 31 32  1  0  0  0  0
 31 33  1  0  0  0  0
 34 35  1  0  0  0  0
 34 53  1  0  0  0  0
 35 36  1  0  0  0  0
 35 52  2  0  0  0  0
 36 37  1  0  0  0  0
 36 51  1  0  0  0  0
 36 73  1  0  0  0  0
 37 38  1  0  0  0  0
 38 39  1  0  0  0  0
 39 40  1  0  0  0  0
 39 50  1  0  0  0  0
 40 41  1  0  0  0  0
 40 49  2  0  0  0  0
 42 43  1  0  0  0  0
 43 44  1  0  0  0  0
 43 47  1  0  0  0  0
 43 48  1  0  0  0  0
 44 45  1  0  0  0  0
 44 46  1  0  0  0  0
 50 51  1  0  0  0  0
 55 56  1  0  0  0  0
 56 57  1  0  0  0  0
 56 61  1  0  0  0  0
 57 58  1  0  0  0  0
 58 59  1  0  0  0  0
 58 71  1  0  0  0  0
 59 60  1  0  0  0  0
 60 61  1  0  0  0  0
 63 64  1  0  0  0  0
 64 65  1  0  0  0  0
 67 68  2  0  0  0  0
 67 72  1  0  0  0  0
 68 69  1  0  0  0  0
 69 70  2  0  0  0  0
 70 71  1  0  0  0  0
 71 72  2  0  0  0  0
 41 42  3  0  0  0  0
  1 74  1  0  0  0  0
  1 75  1  0  0  0  0
  1 76  1  0  0  0  0
  2 77  1  0  0  0  0
  4 78  1  0  0  0  0
  4 79  1  0  0  0  0
  4 80  1  0  0  0  0
  7 81  1  0  0  0  0
  8 82  1  0  0  0  0
  9 83  1  0  0  0  0
 13 84  1  0  0  0  0
 13 85  1  0  0  0  0
 14 86  1  0  0  0  0
 14 87  1  0  0  0  0
 14 88  1  0  0  0  0
 16 89  1  0  0  0  0
 16 90  1  0  0  0  0
 18 91  1  0  0  0  0
 18 92  1  0  0  0  0
 18 93  1  0  0  0  0
 19 94  1  0  0  0  0
 19 95  1  0  0  0  0
 19 96  1  0  0  0  0
 20 97  1  0  0  0  0
 20 98  1  0  0  0  0
 23 99  1  0  0  0  0
 24100  1  0  0  0  0
 27101  1  0  0  0  0
 28102  1  0  0  0  0
 30103  1  0  0  0  0
 31104  1  0  0  0  0
 32105  1  0  0  0  0
 32106  1  0  0  0  0
 32107  1  0  0  0  0
 33108  1  0  0  0  0
 33109  1  0  0  0  0
 33110  1  0  0  0  0
 37111  1  0  0  0  0
 37112  1  0  0  0  0
 38113  1  0  0  0  0
 38114  1  0  0  0  0
 45115  1  0  0  0  0
 45116  1  0  0  0  0
 45117  1  0  0  0  0
 46118  1  0  0  0  0
 46119  1  0  0  0  0
 46120  1  0  0  0  0
 47121  1  0  0  0  0
 47122  1  0  0  0  0
 47123  1  0  0  0  0
 48124  1  0  0  0  0
 48125  1  0  0  0  0
 48126  1  0  0  0  0
 50127  1  0  0  0  0
 50128  1  0  0  0  0
 51129  1  0  0  0  0
 51130  1  0  0  0  0
 53131  1  0  0  0  0
 53132  1  0  0  0  0
 53133  1  0  0  0  0
 55134  1  0  0  0  0
 55135  1  0  0  0  0
 56136  1  0  0  0  0
 57137  1  0  0  0  0
 57138  1  0  0  0  0
 59139  1  0  0  0  0
 59140  1  0  0  0  0
 60141  1  0  0  0  0
 60142  1  0  0  0  0
 63143  1  0  0  0  0
 63144  1  0  0  0  0
 64145  1  0  0  0  0
 64146  1  0  0  0  0
 65147  1  0  0  0  0
 65148  1  0  0  0  0
 69149  1  0  0  0  0
 70150  1  0  0  0  0
 72151  1  0  0  0  0
M  END
$$$$
