 xtb: 6.7.1 (edcfbbe)
          08232518473D

151157  0     0  0            999 V2000
    1.1590   -4.0949   -3.6710 C   0  0  0  0  0  0  0  0  0  0  0  0
    1.9184   -4.2893   -2.3525 C   0  0  0  0  0  0  0  0  0  0  0  0
    1.3019   -3.5989   -1.2776 O   0  0  0  0  0  0  0  0  0  0  0  0
    0.3653   -4.3648   -0.5692 C   0  0  0  0  0  0  0  0  0  0  0  0
    3.3593   -3.8584   -2.5187 C   0  0  0  0  0  0  0  0  0  0  0  0
    4.1908   -4.8835   -2.6605 N   0  0  0  0  0  0  0  0  0  0  0  0
    5.4691   -4.6674   -2.9030 C   0  0  0  0  0  0  0  0  0  0  0  0
    6.0024   -3.3963   -3.0368 C   0  0  0  0  0  0  0  0  0  0  0  0
    5.1460   -2.3233   -2.8775 C   0  0  0  0  0  0  0  0  0  0  0  0
    3.7951   -2.5304   -2.5939 C   0  0  0  0  0  0  0  0  0  0  0  0
    2.9385   -1.3466   -2.4253 C   0  0  0  0  0  0  0  0  0  0  0  0
    2.5912   -0.6018   -3.5311 N   0  0  0  0  0  0  0  0  0  0  0  0
    2.8715   -0.9202   -4.9066 C   0  0  0  0  0  0  0  0  0  0  0  0
    3.9606   -0.0228   -5.4935 C   0  0  0  0  0  0  0  0  0  0  0  0
    2.4832   -0.7368   -1.2779 C   0  0  0  0  0  0  0  0  0  0  0  0
    2.5839   -1.1930    0.1439 C   0  0  0  0  0  0  0  0  0  0  0  0
    3.8255   -0.7291    0.9389 C   0  0  0  0  0  0  0  0  0  0  0  0
    5.1036   -1.2129    0.2527 C   0  0  0  0  0  0  0  0  0  0  0  0
    3.7512   -1.3312    2.3442 C   0  0  0  0  0  0  0  0  0  0  0  0
    3.9121    0.8096    1.0201 C   0  0  0  0  0  0  0  0  0  0  0  0
    3.1824    1.4079    2.1012 O   0  0  0  0  0  0  0  0  0  0  0  0
    3.8851    1.7427    3.1804 C   0  0  0  0  0  0  0  0  0  0  0  0
    3.0578    2.5609    4.1661 C   0  0  0  0  0  0  0  0  0  0  0  0
    1.8013    1.9279    4.5410 N   0  0  0  0  0  0  0  0  0  0  0  0
    1.0128    2.8459    5.2458 N   0  0  0  0  0  0  0  0  0  0  0  0
    0.1694    3.7539    4.7037 C   0  0  0  0  0  0  0  0  0  0  0  0
   -0.1049    3.6051    3.1950 C   0  0  0  0  0  0  0  0  0  0  0  0
   -1.3841    2.9474    3.0164 N   0  0  0  0  0  0  0  0  0  0  0  0
   -1.4836    1.6127    2.9738 C   0  0  0  0  0  0  0  0  0  0  0  0
   -2.9073    1.0765    2.8058 C   0  0  0  0  0  0  0  0  0  0  0  0
   -3.5007    0.6420    4.1557 C   0  0  0  0  0  0  0  0  0  0  0  0
   -4.9539    0.2089    3.9685 C   0  0  0  0  0  0  0  0  0  0  0  0
   -3.4297    1.7955    5.1557 C   0  0  0  0  0  0  0  0  0  0  0  0
   -2.8832    0.0164    1.7961 N   0  0  0  0  0  0  0  0  0  0  0  0
   -3.0775    0.4296    0.5310 C   0  0  0  0  0  0  0  0  0  0  0  0
   -2.9505   -0.5602   -0.6400 C   0  0  0  0  0  0  0  0  0  0  0  0
   -1.4783   -0.8291   -0.9644 C   0  0  0  0  0  0  0  0  0  0  0  0
   -1.3648   -1.7412   -2.1853 C   0  0  0  0  0  0  0  0  0  0  0  0
   -2.0354   -1.1348   -3.3088 N   0  0  0  0  0  0  0  0  0  0  0  0
   -1.3529   -0.8039   -4.4249 C   0  0  0  0  0  0  0  0  0  0  0  0
   -2.0708   -0.0045   -5.3855 C   0  0  0  0  0  0  0  0  0  0  0  0
   -2.5176    0.7233   -6.2346 C   0  0  0  0  0  0  0  0  0  0  0  0
   -2.9713    1.6206   -7.2959 C   0  0  0  0  0  0  0  0  0  0  0  0
   -1.8941    1.8694   -8.2681 N   0  0  0  0  0  0  0  0  0  0  0  0
   -0.7382    2.5310   -7.6894 C   0  0  0  0  0  0  0  0  0  0  0  0
   -1.4768    0.6775   -8.9850 C   0  0  0  0  0  0  0  0  0  0  0  0
   -3.4170    2.9468   -6.6569 C   0  0  0  0  0  0  0  0  0  0  0  0
   -4.1845    0.9933   -8.0014 C   0  0  0  0  0  0  0  0  0  0  0  0
   -0.1958   -1.1365   -4.6308 O   0  0  0  0  0  0  0  0  0  0  0  0
   -3.4362   -0.8789   -3.0897 C   0  0  0  0  0  0  0  0  0  0  0  0
   -3.6434    0.0244   -1.8749 C   0  0  0  0  0  0  0  0  0  0  0  0
   -3.3383    1.5971    0.2705 O   0  0  0  0  0  0  0  0  0  0  0  0
   -2.4072   -1.2827    2.2198 C   0  0  0  0  0  0  0  0  0  0  0  0
   -0.5076    0.8799    3.0523 O   0  0  0  0  0  0  0  0  0  0  0  0
   -0.0914    4.9693    2.5090 C   0  0  0  0  0  0  0  0  0  0  0  0
   -0.3528    4.9019    0.9959 C   0  0  0  0  0  0  0  0  0  0  0  0
    0.1814    3.6114    0.3710 C   0  0  0  0  0  0  0  0  0  0  0  0
   -0.0716    3.5802   -1.0554 N   0  0  0  0  0  0  0  0  0  0  0  0
   -1.5011    3.7383   -1.2980 C   0  0  0  0  0  0  0  0  0  0  0  0
   -2.0000    5.0156   -0.6230 C   0  0  0  0  0  0  0  0  0  0  0  0
   -1.7440    5.0094    0.7633 O   0  0  0  0  0  0  0  0  0  0  0  0
   -0.4088    4.5886    5.3752 O   0  0  0  0  0  0  0  0  0  0  0  0
    1.5738    3.0666    6.5663 C   0  0  0  0  0  0  0  0  0  0  0  0
    2.9709    3.6747    6.4066 C   0  0  0  0  0  0  0  0  0  0  0  0
    3.8192    2.8107    5.4726 C   0  0  0  0  0  0  0  0  0  0  0  0
    5.0575    1.5219    3.3333 O   0  0  0  0  0  0  0  0  0  0  0  0
    1.7934    0.4350   -1.7083 C   0  0  0  0  0  0  0  0  0  0  0  0
    1.8697    0.4801   -3.1172 C   0  0  0  0  0  0  0  0  0  0  0  0
    1.2561    1.5083   -3.8259 C   0  0  0  0  0  0  0  0  0  0  0  0
    0.6022    2.4909   -3.1183 C   0  0  0  0  0  0  0  0  0  0  0  0
    0.5363    2.4806   -1.7118 C   0  0  0  0  0  0  0  0  0  0  0  0
    1.1179    1.4372   -1.0120 C   0  0  0  0  0  0  0  0  0  0  0  0
   -3.5906   -1.7638   -0.3309 F   0  0  0  0  0  0  0  0  0  0  0  0
    0.1626   -4.5247   -3.5952 H   0  0  0  0  0  0  0  0  0  0  0  0
    1.0630   -3.0392   -3.9097 H   0  0  0  0  0  0  0  0  0  0  0  0
    1.6919   -4.5978   -4.4738 H   0  0  0  0  0  0  0  0  0  0  0  0
    1.9551   -5.3648   -2.1221 H   0  0  0  0  0  0  0  0  0  0  0  0
   -0.0079   -3.7298    0.2323 H   0  0  0  0  0  0  0  0  0  0  0  0
   -0.4731   -4.6800   -1.2006 H   0  0  0  0  0  0  0  0  0  0  0  0
    0.8293   -5.2589   -0.1338 H   0  0  0  0  0  0  0  0  0  0  0  0
    6.0815   -5.5543   -3.0004 H   0  0  0  0  0  0  0  0  0  0  0  0
    7.0490   -3.2502   -3.2536 H   0  0  0  0  0  0  0  0  0  0  0  0
    5.5180   -1.3124   -2.9676 H   0  0  0  0  0  0  0  0  0  0  0  0
    3.1819   -1.9663   -4.9651 H   0  0  0  0  0  0  0  0  0  0  0  0
    1.9435   -0.8044   -5.4731 H   0  0  0  0  0  0  0  0  0  0  0  0
    4.9080   -0.1799   -4.9832 H   0  0  0  0  0  0  0  0  0  0  0  0
    4.0959   -0.2490   -6.5479 H   0  0  0  0  0  0  0  0  0  0  0  0
    3.6862    1.0242   -5.3927 H   0  0  0  0  0  0  0  0  0  0  0  0
    1.6971   -0.8381    0.6739 H   0  0  0  0  0  0  0  0  0  0  0  0
    2.5689   -2.2829    0.1555 H   0  0  0  0  0  0  0  0  0  0  0  0
    5.9689   -1.0222    0.8837 H   0  0  0  0  0  0  0  0  0  0  0  0
    5.0464   -2.2806    0.0571 H   0  0  0  0  0  0  0  0  0  0  0  0
    5.2423   -0.6944   -0.6915 H   0  0  0  0  0  0  0  0  0  0  0  0
    2.8280   -1.0415    2.8422 H   0  0  0  0  0  0  0  0  0  0  0  0
    3.7832   -2.4164    2.2828 H   0  0  0  0  0  0  0  0  0  0  0  0
    4.5909   -0.9951    2.9483 H   0  0  0  0  0  0  0  0  0  0  0  0
    4.9601    1.1024    1.1395 H   0  0  0  0  0  0  0  0  0  0  0  0
    3.5094    1.2558    0.1087 H   0  0  0  0  0  0  0  0  0  0  0  0
    2.8841    3.5321    3.6577 H   0  0  0  0  0  0  0  0  0  0  0  0
    1.2837    1.4749    3.7901 H   0  0  0  0  0  0  0  0  0  0  0  0
    0.6599    2.9662    2.7475 H   0  0  0  0  0  0  0  0  0  0  0  0
   -2.1835    3.5436    2.8677 H   0  0  0  0  0  0  0  0  0  0  0  0
   -3.5347    1.8721    2.3901 H   0  0  0  0  0  0  0  0  0  0  0  0
   -2.9126   -0.1885    4.5556 H   0  0  0  0  0  0  0  0  0  0  0  0
   -5.3553   -0.1737    4.9038 H   0  0  0  0  0  0  0  0  0  0  0  0
   -5.5584    1.0585    3.6581 H   0  0  0  0  0  0  0  0  0  0  0  0
   -5.0482   -0.5647    3.2110 H   0  0  0  0  0  0  0  0  0  0  0  0
   -3.8986    1.4979    6.0905 H   0  0  0  0  0  0  0  0  0  0  0  0
   -2.4016    2.0766    5.3696 H   0  0  0  0  0  0  0  0  0  0  0  0
   -3.9556    2.6690    4.7764 H   0  0  0  0  0  0  0  0  0  0  0  0
   -0.9966    0.1271   -1.1778 H   0  0  0  0  0  0  0  0  0  0  0  0
   -0.9578   -1.2878   -0.1255 H   0  0  0  0  0  0  0  0  0  0  0  0
   -0.3147   -1.8915   -2.4355 H   0  0  0  0  0  0  0  0  0  0  0  0
   -1.8303   -2.7090   -1.9664 H   0  0  0  0  0  0  0  0  0  0  0  0
   -1.0122    3.5184   -7.3269 H   0  0  0  0  0  0  0  0  0  0  0  0
   -0.2863    1.9588   -6.8666 H   0  0  0  0  0  0  0  0  0  0  0  0
    0.0087    2.6601   -8.4714 H   0  0  0  0  0  0  0  0  0  0  0  0
   -1.1015   -0.1136   -8.3196 H   0  0  0  0  0  0  0  0  0  0  0  0
   -2.3014    0.2853   -9.5747 H   0  0  0  0  0  0  0  0  0  0  0  0
   -0.6800    0.9550   -9.6736 H   0  0  0  0  0  0  0  0  0  0  0  0
   -2.6763    3.3198   -5.9553 H   0  0  0  0  0  0  0  0  0  0  0  0
   -3.5779    3.6844   -7.4385 H   0  0  0  0  0  0  0  0  0  0  0  0
   -4.3463    2.7990   -6.1119 H   0  0  0  0  0  0  0  0  0  0  0  0
   -5.0481    1.0205   -7.3412 H   0  0  0  0  0  0  0  0  0  0  0  0
   -4.4088    1.5611   -8.9004 H   0  0  0  0  0  0  0  0  0  0  0  0
   -4.0004   -0.0442   -8.2665 H   0  0  0  0  0  0  0  0  0  0  0  0
   -3.8631   -0.4142   -3.9802 H   0  0  0  0  0  0  0  0  0  0  0  0
   -3.9417   -1.8377   -2.9139 H   0  0  0  0  0  0  0  0  0  0  0  0
   -4.7092    0.1336   -1.6702 H   0  0  0  0  0  0  0  0  0  0  0  0
   -3.2274    1.0134   -2.0633 H   0  0  0  0  0  0  0  0  0  0  0  0
   -3.1053   -1.7231    2.9321 H   0  0  0  0  0  0  0  0  0  0  0  0
   -2.3168   -1.9639    1.3840 H   0  0  0  0  0  0  0  0  0  0  0  0
   -1.4327   -1.1642    2.6970 H   0  0  0  0  0  0  0  0  0  0  0  0
   -0.8514    5.6062    2.9647 H   0  0  0  0  0  0  0  0  0  0  0  0
    0.8826    5.4290    2.6843 H   0  0  0  0  0  0  0  0  0  0  0  0
    0.1448    5.7584    0.5076 H   0  0  0  0  0  0  0  0  0  0  0  0
    1.2603    3.5511    0.5329 H   0  0  0  0  0  0  0  0  0  0  0  0
   -0.3238    2.7626    0.8530 H   0  0  0  0  0  0  0  0  0  0  0  0
   -1.6848    3.7951   -2.3712 H   0  0  0  0  0  0  0  0  0  0  0  0
   -2.0675    2.8933   -0.8775 H   0  0  0  0  0  0  0  0  0  0  0  0
   -1.5144    5.8917   -1.0808 H   0  0  0  0  0  0  0  0  0  0  0  0
   -3.0823    5.0975   -0.7313 H   0  0  0  0  0  0  0  0  0  0  0  0
    0.9086    3.7361    7.1112 H   0  0  0  0  0  0  0  0  0  0  0  0
    1.6320    2.0994    7.0690 H   0  0  0  0  0  0  0  0  0  0  0  0
    2.8699    4.6789    5.9880 H   0  0  0  0  0  0  0  0  0  0  0  0
    3.4505    3.7587    7.3815 H   0  0  0  0  0  0  0  0  0  0  0  0
    4.0170    1.8439    5.9362 H   0  0  0  0  0  0  0  0  0  0  0  0
    4.7745    3.2898    5.2605 H   0  0  0  0  0  0  0  0  0  0  0  0
    1.2854    1.5414   -4.9041 H   0  0  0  0  0  0  0  0  0  0  0  0
    0.1406    3.3094   -3.6502 H   0  0  0  0  0  0  0  0  0  0  0  0
    1.0656    1.3657    0.0617 H   0  0  0  0  0  0  0  0  0  0  0  0
  1  2  1  0  0  0  0
  2  3  1  0  0  0  0
  3  4  1  0  0  0  0
  2  5  1  0  0  0  0
  5  6  4  0  0  0  0
  6  7  4  0  0  0  0
  7  8  4  0  0  0  0
  8  9  4  0  0  0  0
  5 10  4  0  0  0  0
  9 10  4  0  0  0  0
 10 11  1  0  0  0  0
 11 12  1  0  0  0  0
 12 13  1  0  0  0  0
 13 14  1  0  0  0  0
 11 15  2  0  0  0  0
 15 16  1  0  0  0  0
 16 17  1  0  0  0  0
 17 18  1  0  0  0  0
 17 19  1  0  0  0  0
 17 20  1  0  0  0  0
 20 21  1  0  0  0  0
 21 22  1  0  0  0  0
 22 23  1  0  0  0  0
 23 24  1  0  0  0  0
 24 25  1  0  0  0  0
 25 26  4  0  0  0  0
 26 27  1  0  0  0  0
 27 28  1  0  0  0  0
 28 29  4  0  0  0  0
 29 30  1  0  0  0  0
 30 31  1  0  0  0  0
 31 32  1  0  0  0  0
 31 33  1  0  0  0  0
 30 34  1  0  0  0  0
 34 35  4  0  0  0  0
 35 36  1  0  0  0  0
 36 37  1  0  0  0  0
 37 38  1  0  0  0  0
 38 39  1  0  0  0  0
 39 40  4  0  0  0  0
 40 41  1  0  0  0  0
 41 42  3  0  0  0  0
 42 43  1  0  0  0  0
 43 44  1  0  0  0  0
 44 45  1  0  0  0  0
 44 46  1  0  0  0  0
 43 47  1  0  0  0  0
 43 48  1  0  0  0  0
 40 49  2  0  0  0  0
 39 50  1  0  0  0  0
 36 51  1  0  0  0  0
 50 51  1  0  0  0  0
 35 52  2  0  0  0  0
 34 53  1  0  0  0  0
 29 54  2  0  0  0  0
 27 55  1  0  0  0  0
 55 56  1  0  0  0  0
 56 57  1  0  0  0  0
 57 58  1  0  0  0  0
 58 59  1  0  0  0  0
 59 60  1  0  0  0  0
 56 61  1  0  0  0  0
 60 61  1  0  0  0  0
 26 62  2  0  0  0  0
 25 63  1  0  0  0  0
 63 64  1  0  0  0  0
 23 65  1  0  0  0  0
 64 65  1  0  0  0  0
 22 66  2  0  0  0  0
 15 67  4  0  0  0  0
 12 68  1  0  0  0  0
 67 68  4  0  0  0  0
 68 69  4  0  0  0  0
 69 70  2  0  0  0  0
 58 71  1  0  0  0  0
 70 71  4  0  0  0  0
 67 72  4  0  0  0  0
 71 72  4  0  0  0  0
 36 73  1  0  0  0  0
  1 74  1  0  0  0  0
  1 75  1  0  0  0  0
  1 76  1  0  0  0  0
  2 77  1  0  0  0  0
  4 78  1  0  0  0  0
  4 79  1  0  0  0  0
  4 80  1  0  0  0  0
  7 81  1  0  0  0  0
  8 82  1  0  0  0  0
  9 83  1  0  0  0  0
 13 84  1  0  0  0  0
 13 85  1  0  0  0  0
 14 86  1  0  0  0  0
 14 87  1  0  0  0  0
 14 88  1  0  0  0  0
 16 89  1  0  0  0  0
 16 90  1  0  0  0  0
 18 91  1  0  0  0  0
 18 92  1  0  0  0  0
 18 93  1  0  0  0  0
 19 94  1  0  0  0  0
 19 95  1  0  0  0  0
 19 96  1  0  0  0  0
 20 97  1  0  0  0  0
 20 98  1  0  0  0  0
 23 99  1  0  0  0  0
 24100  1  0  0  0  0
 27101  1  0  0  0  0
 28102  1  0  0  0  0
 30103  1  0  0  0  0
 31104  1  0  0  0  0
 32105  1  0  0  0  0
 32106  1  0  0  0  0
 32107  1  0  0  0  0
 33108  1  0  0  0  0
 33109  1  0  0  0  0
 33110  1  0  0  0  0
 37111  1  0  0  0  0
 37112  1  0  0  0  0
 38113  1  0  0  0  0
 38114  1  0  0  0  0
 45115  1  0  0  0  0
 45116  1  0  0  0  0
 45117  1  0  0  0  0
 46118  1  0  0  0  0
 46119  1  0  0  0  0
 46120  1  0  0  0  0
 47121  1  0  0  0  0
 47122  1  0  0  0  0
 47123  1  0  0  0  0
 48124  1  0  0  0  0
 48125  1  0  0  0  0
 48126  1  0  0  0  0
 50127  1  0  0  0  0
 50128  1  0  0  0  0
 51129  1  0  0  0  0
 51130  1  0  0  0  0
 53131  1  0  0  0  0
 53132  1  0  0  0  0
 53133  1  0  0  0  0
 55134  1  0  0  0  0
 55135  1  0  0  0  0
 56136  1  0  0  0  0
 57137  1  0  0  0  0
 57138  1  0  0  0  0
 59139  1  0  0  0  0
 59140  1  0  0  0  0
 60141  1  0  0  0  0
 60142  1  0  0  0  0
 63143  1  0  0  0  0
 63144  1  0  0  0  0
 64145  1  0  0  0  0
 64146  1  0  0  0  0
 65147  1  0  0  0  0
 65148  1  0  0  0  0
 69149  1  0  0  0  0
 70150  1  0  0  0  0
 72151  1  0  0  0  0
M  END
$$$$
