mol_ETKDG1_6
     RDKit          3D

151157  0  0  0  0  0  0  0  0999 V2000
    4.6237    7.6510   -7.2537 C   0  0  0  0  0  0  0  0  0  0  0  0
    4.0731    6.2301   -7.1038 C   0  0  2  0  0  0  0  0  0  0  0  0
    5.1319    5.2842   -7.3210 O   0  0  0  0  0  0  0  0  0  0  0  0
    5.8972    5.0312   -6.1521 C   0  0  0  0  0  0  0  0  0  0  0  0
    2.9448    5.9421   -8.0897 C   0  0  0  0  0  0  0  0  0  0  0  0
    2.9576    6.6376   -9.2668 N   0  0  0  0  0  0  0  0  0  0  0  0
    1.9849    6.3855  -10.1675 C   0  0  0  0  0  0  0  0  0  0  0  0
    0.9670    5.4759   -9.9630 C   0  0  0  0  0  0  0  0  0  0  0  0
    0.9492    4.7752   -8.7632 C   0  0  0  0  0  0  0  0  0  0  0  0
    1.9486    4.9896   -7.8061 C   0  0  0  0  0  0  0  0  0  0  0  0
    1.9102    4.2081   -6.5632 C   0  0  0  0  0  0  0  0  0  0  0  0
    1.1711    4.5737   -5.4559 N   0  0  0  0  0  0  0  0  0  0  0  0
    0.3137    5.7472   -5.3498 C   0  0  0  0  0  0  0  0  0  0  0  0
   -1.1461    5.4241   -5.6216 C   0  0  0  0  0  0  0  0  0  0  0  0
    2.5745    3.0190   -6.2582 C   0  0  0  0  0  0  0  0  0  0  0  0
    3.5140    2.2789   -7.1827 C   0  0  0  0  0  0  0  0  0  0  0  0
    2.9839    0.9964   -7.8949 C   0  0  0  0  0  0  0  0  0  0  0  0
    1.5277    1.1361   -8.3716 C   0  0  0  0  0  0  0  0  0  0  0  0
    3.8671    0.7648   -9.1462 C   0  0  0  0  0  0  0  0  0  0  0  0
    3.0963   -0.2585   -6.9993 C   0  0  0  0  0  0  0  0  0  0  0  0
    4.4512   -0.3910   -6.5349 O   0  0  0  0  0  0  0  0  0  0  0  0
    4.6666   -1.3740   -5.6169 C   0  0  0  0  0  0  0  0  0  0  0  0
    6.0809   -1.2403   -5.0428 C   0  0  1  0  0  0  0  0  0  0  0  0
    6.2928   -2.2488   -3.9899 N   0  0  0  0  0  0  0  0  0  0  0  0
    7.5427   -2.0700   -3.3595 N   0  0  0  0  0  0  0  0  0  0  0  0
    7.7337   -1.8350   -1.9911 C   0  0  0  0  0  0  0  0  0  0  0  0
    6.4917   -1.4473   -1.1439 C   0  0  1  0  0  0  0  0  0  0  0  0
    6.7103   -1.8293    0.2460 N   0  0  0  0  0  0  0  0  0  0  0  0
    6.5889   -3.1572    0.6076 C   0  0  0  0  0  0  0  0  0  0  0  0
    6.9988   -3.4693    2.0650 C   0  0  2  0  0  0  0  0  0  0  0  0
    7.5567   -4.9114    2.1993 C   0  0  0  0  0  0  0  0  0  0  0  0
    7.7577   -5.3124    3.6647 C   0  0  0  0  0  0  0  0  0  0  0  0
    8.8977   -5.0362    1.4602 C   0  0  0  0  0  0  0  0  0  0  0  0
    5.8230   -3.1975    2.9328 N   0  0  0  0  0  0  0  0  0  0  0  0
    5.7826   -1.9466    3.5658 C   0  0  0  0  0  0  0  0  0  0  0  0
    4.5775   -1.6136    4.4800 C   0  0  0  0  0  0  0  0  0  0  0  0
    4.6358   -2.4794    5.7526 C   0  0  0  0  0  0  0  0  0  0  0  0
    3.5112   -2.0964    6.7100 C   0  0  0  0  0  0  0  0  0  0  0  0
    3.5983   -0.6747    7.0070 N   0  0  0  0  0  0  0  0  0  0  0  0
    4.1603   -0.2853    8.2191 C   0  0  0  0  0  0  0  0  0  0  0  0
    4.5249    1.1031    8.3945 C   0  0  0  0  0  0  0  0  0  0  0  0
    4.8803    2.2440    8.5238 C   0  0  0  0  0  0  0  0  0  0  0  0
    5.3441    3.6506    8.6645 C   0  0  0  0  0  0  0  0  0  0  0  0
    6.7402    3.7468    8.1589 N   0  0  0  0  0  0  0  0  0  0  0  0
    6.8889    3.4518    6.7304 C   0  0  0  0  0  0  0  0  0  0  0  0
    7.4205    5.0048    8.4699 C   0  0  0  0  0  0  0  0  0  0  0  0
    4.3491    4.5657    7.9169 C   0  0  0  0  0  0  0  0  0  0  0  0
    5.2673    3.9861   10.1740 C   0  0  0  0  0  0  0  0  0  0  0  0
    4.3888   -1.0586    9.1424 O   0  0  0  0  0  0  0  0  0  0  0  0
    3.4686    0.1942    5.8432 C   0  0  0  0  0  0  0  0  0  0  0  0
    4.5766   -0.1166    4.8433 C   0  0  0  0  0  0  0  0  0  0  0  0
    6.7258   -1.1536    3.4640 O   0  0  0  0  0  0  0  0  0  0  0  0
    4.6041   -3.9570    2.6502 C   0  0  0  0  0  0  0  0  0  0  0  0
    6.0988   -3.9985   -0.1442 O   0  0  0  0  0  0  0  0  0  0  0  0
    6.2691    0.0665   -1.2951 C   0  0  0  0  0  0  0  0  0  0  0  0
    4.8327    0.5671   -1.0971 C   0  0  1  0  0  0  0  0  0  0  0  0
    3.8059   -0.1512   -2.0007 C   0  0  0  0  0  0  0  0  0  0  0  0
    2.4903    0.5025   -1.8466 N   0  0  0  0  0  0  0  0  0  0  0  0
    2.0668    0.4287   -0.4280 C   0  0  0  0  0  0  0  0  0  0  0  0
    3.1397    1.0568    0.4835 C   0  0  0  0  0  0  0  0  0  0  0  0
    4.4395    0.4568    0.2849 O   0  0  0  0  0  0  0  0  0  0  0  0
    8.8602   -1.8243   -1.4798 O   0  0  0  0  0  0  0  0  0  0  0  0
    8.6815   -2.2981   -4.2531 C   0  0  0  0  0  0  0  0  0  0  0  0
    8.5686   -1.3804   -5.4769 C   0  0  0  0  0  0  0  0  0  0  0  0
    7.1686   -1.4322   -6.1066 C   0  0  0  0  0  0  0  0  0  0  0  0
    3.8166   -2.1633   -5.2266 O   0  0  0  0  0  0  0  0  0  0  0  0
    2.2586    2.7049   -4.8928 C   0  0  0  0  0  0  0  0  0  0  0  0
    1.3816    3.6787   -4.4259 C   0  0  0  0  0  0  0  0  0  0  0  0
    0.8706    3.6380   -3.1230 C   0  0  0  0  0  0  0  0  0  0  0  0
    1.2603    2.5821   -2.2809 C   0  0  0  0  0  0  0  0  0  0  0  0
    2.1510    1.5772   -2.6732 C   0  0  0  0  0  0  0  0  0  0  0  0
    2.6347    1.6734   -3.9961 C   0  0  0  0  0  0  0  0  0  0  0  0
    3.3838   -1.8608    3.8476 F   0  0  0  0  0  0  0  0  0  0  0  0
    5.3487    7.8745   -6.4647 H   0  0  0  0  0  0  0  0  0  0  0  0
    5.1547    7.7760   -8.2051 H   0  0  0  0  0  0  0  0  0  0  0  0
    3.8255    8.3991   -7.1980 H   0  0  0  0  0  0  0  0  0  0  0  0
    3.6823    6.1366   -6.0837 H   0  0  0  0  0  0  0  0  0  0  0  0
    5.2640    4.6334   -5.3530 H   0  0  0  0  0  0  0  0  0  0  0  0
    6.6551    4.2802   -6.3960 H   0  0  0  0  0  0  0  0  0  0  0  0
    6.4081    5.9371   -5.8126 H   0  0  0  0  0  0  0  0  0  0  0  0
    2.0502    6.9557  -11.0891 H   0  0  0  0  0  0  0  0  0  0  0  0
    0.2102    5.3085  -10.7195 H   0  0  0  0  0  0  0  0  0  0  0  0
    0.1629    4.0466   -8.5796 H   0  0  0  0  0  0  0  0  0  0  0  0
    0.4373    6.1581   -4.3419 H   0  0  0  0  0  0  0  0  0  0  0  0
    0.6757    6.5128   -6.0433 H   0  0  0  0  0  0  0  0  0  0  0  0
   -1.5166    4.6460   -4.9463 H   0  0  0  0  0  0  0  0  0  0  0  0
   -1.7622    6.3174   -5.4825 H   0  0  0  0  0  0  0  0  0  0  0  0
   -1.2881    5.0689   -6.6462 H   0  0  0  0  0  0  0  0  0  0  0  0
    3.8345    2.9851   -7.9603 H   0  0  0  0  0  0  0  0  0  0  0  0
    4.4342    2.0551   -6.6270 H   0  0  0  0  0  0  0  0  0  0  0  0
    0.8388    1.3045   -7.5355 H   0  0  0  0  0  0  0  0  0  0  0  0
    1.4225    1.9606   -9.0803 H   0  0  0  0  0  0  0  0  0  0  0  0
    1.1924    0.2256   -8.8840 H   0  0  0  0  0  0  0  0  0  0  0  0
    4.9257    0.6758   -8.8799 H   0  0  0  0  0  0  0  0  0  0  0  0
    3.5763   -0.1509   -9.6733 H   0  0  0  0  0  0  0  0  0  0  0  0
    3.7733    1.5946   -9.8558 H   0  0  0  0  0  0  0  0  0  0  0  0
    2.4104   -0.1878   -6.1486 H   0  0  0  0  0  0  0  0  0  0  0  0
    2.8351   -1.1595   -7.5688 H   0  0  0  0  0  0  0  0  0  0  0  0
    6.1438   -0.2389   -4.5979 H   0  0  0  0  0  0  0  0  0  0  0  0
    5.4891   -2.3680   -3.3763 H   0  0  0  0  0  0  0  0  0  0  0  0
    5.6361   -2.0236   -1.4919 H   0  0  0  0  0  0  0  0  0  0  0  0
    7.3018   -1.2400    0.8247 H   0  0  0  0  0  0  0  0  0  0  0  0
    7.8149   -2.7868    2.3347 H   0  0  0  0  0  0  0  0  0  0  0  0
    6.8642   -5.6306    1.7448 H   0  0  0  0  0  0  0  0  0  0  0  0
    6.8048   -5.3585    4.2022 H   0  0  0  0  0  0  0  0  0  0  0  0
    8.2176   -6.3035    3.7364 H   0  0  0  0  0  0  0  0  0  0  0  0
    8.4080   -4.6009    4.1872 H   0  0  0  0  0  0  0  0  0  0  0  0
    9.2722   -6.0643    1.5104 H   0  0  0  0  0  0  0  0  0  0  0  0
    8.7982   -4.7710    0.4026 H   0  0  0  0  0  0  0  0  0  0  0  0
    9.6562   -4.3788    1.9032 H   0  0  0  0  0  0  0  0  0  0  0  0
    4.5480   -3.5452    5.5208 H   0  0  0  0  0  0  0  0  0  0  0  0
    5.6073   -2.3433    6.2453 H   0  0  0  0  0  0  0  0  0  0  0  0
    2.5323   -2.2921    6.2569 H   0  0  0  0  0  0  0  0  0  0  0  0
    3.5777   -2.6966    7.6231 H   0  0  0  0  0  0  0  0  0  0  0  0
    7.9507    3.4089    6.4622 H   0  0  0  0  0  0  0  0  0  0  0  0
    6.4793    2.4707    6.4685 H   0  0  0  0  0  0  0  0  0  0  0  0
    6.4155    4.2088    6.0962 H   0  0  0  0  0  0  0  0  0  0  0  0
    7.5008    5.1676    9.5481 H   0  0  0  0  0  0  0  0  0  0  0  0
    8.4544    4.9817    8.1036 H   0  0  0  0  0  0  0  0  0  0  0  0
    6.9276    5.8704    8.0175 H   0  0  0  0  0  0  0  0  0  0  0  0
    3.3440    4.4828    8.3495 H   0  0  0  0  0  0  0  0  0  0  0  0
    4.6406    5.6189    7.9772 H   0  0  0  0  0  0  0  0  0  0  0  0
    4.2537    4.2950    6.8593 H   0  0  0  0  0  0  0  0  0  0  0  0
    6.0109    3.4205   10.7470 H   0  0  0  0  0  0  0  0  0  0  0  0
    5.4180    5.0532   10.3652 H   0  0  0  0  0  0  0  0  0  0  0  0
    4.2848    3.7240   10.5865 H   0  0  0  0  0  0  0  0  0  0  0  0
    2.4834    0.0051    5.3961 H   0  0  0  0  0  0  0  0  0  0  0  0
    3.4953    1.2516    6.1235 H   0  0  0  0  0  0  0  0  0  0  0  0
    5.5431    0.1734    5.2766 H   0  0  0  0  0  0  0  0  0  0  0  0
    4.4279    0.4871    3.9411 H   0  0  0  0  0  0  0  0  0  0  0  0
    3.9464   -3.9987    3.5159 H   0  0  0  0  0  0  0  0  0  0  0  0
    4.0696   -3.4722    1.8284 H   0  0  0  0  0  0  0  0  0  0  0  0
    4.8475   -4.9866    2.3782 H   0  0  0  0  0  0  0  0  0  0  0  0
    6.9247    0.5977   -0.5913 H   0  0  0  0  0  0  0  0  0  0  0  0
    6.5822    0.3835   -2.2977 H   0  0  0  0  0  0  0  0  0  0  0  0
    4.8430    1.6385   -1.3431 H   0  0  0  0  0  0  0  0  0  0  0  0
    4.1615   -0.1961   -3.0277 H   0  0  0  0  0  0  0  0  0  0  0  0
    3.6836   -1.1905   -1.6746 H   0  0  0  0  0  0  0  0  0  0  0  0
    1.0772    0.8554   -0.2431 H   0  0  0  0  0  0  0  0  0  0  0  0
    1.9767   -0.6350   -0.1690 H   0  0  0  0  0  0  0  0  0  0  0  0
    3.2221    2.1352    0.3099 H   0  0  0  0  0  0  0  0  0  0  0  0
    2.8692    0.9055    1.5327 H   0  0  0  0  0  0  0  0  0  0  0  0
    9.6304   -2.1190   -3.7376 H   0  0  0  0  0  0  0  0  0  0  0  0
    8.6611   -3.3516   -4.5570 H   0  0  0  0  0  0  0  0  0  0  0  0
    8.7720   -0.3479   -5.1642 H   0  0  0  0  0  0  0  0  0  0  0  0
    9.3284   -1.6477   -6.2203 H   0  0  0  0  0  0  0  0  0  0  0  0
    7.0316   -2.3943   -6.6164 H   0  0  0  0  0  0  0  0  0  0  0  0
    7.0905   -0.6580   -6.8787 H   0  0  0  0  0  0  0  0  0  0  0  0
    0.1757    4.3871   -2.7591 H   0  0  0  0  0  0  0  0  0  0  0  0
    0.8219    2.5858   -1.2890 H   0  0  0  0  0  0  0  0  0  0  0  0
    3.2986    0.9227   -4.3942 H   0  0  0  0  0  0  0  0  0  0  0  0
  1  2  1  0
  2  3  1  0
  2  5  1  0
  3  4  1  0
  5  6  2  0
  5 10  1  0
  6  7  1  0
  7  8  2  0
  8  9  1  0
  9 10  2  0
 10 11  1  0
 11 12  1  0
 11 15  2  0
 12 13  1  0
 12 68  1  0
 13 14  1  0
 15 16  1  0
 15 67  1  0
 16 17  1  0
 17 18  1  0
 17 19  1  0
 17 20  1  0
 20 21  1  0
 21 22  1  0
 22 23  1  0
 22 66  2  0
 23 24  1  0
 23 65  1  0
 24 25  1  0
 25 26  1  0
 25 63  1  0
 26 27  1  0
 26 62  2  0
 27 28  1  0
 27 55  1  0
 28 29  1  0
 29 30  1  0
 29 54  2  0
 30 31  1  0
 30 34  1  0
 31 32  1  0
 31 33  1  0
 34 35  1  0
 34 53  1  0
 35 36  1  0
 35 52  2  0
 36 37  1  0
 36 51  1  0
 36 73  1  0
 37 38  1  0
 38 39  1  0
 39 40  1  0
 39 50  1  0
 40 41  1  0
 40 49  2  0
 42 43  1  0
 43 44  1  0
 43 47  1  0
 43 48  1  0
 44 45  1  0
 44 46  1  0
 50 51  1  0
 55 56  1  0
 56 57  1  0
 56 61  1  0
 57 58  1  0
 58 59  1  0
 58 71  1  0
 59 60  1  0
 60 61  1  0
 63 64  1  0
 64 65  1  0
 67 68  2  0
 67 72  1  0
 68 69  1  0
 69 70  2  0
 70 71  1  0
 71 72  2  0
  1 74  1  0
  1 75  1  0
  1 76  1  0
  2 77  1  1
  4 78  1  0
  4 79  1  0
  4 80  1  0
  7 81  1  0
  8 82  1  0
  9 83  1  0
 13 84  1  0
 13 85  1  0
 14 86  1  0
 14 87  1  0
 14 88  1  0
 16 89  1  0
 16 90  1  0
 18 91  1  0
 18 92  1  0
 18 93  1  0
 19 94  1  0
 19 95  1  0
 19 96  1  0
 20 97  1  0
 20 98  1  0
 23 99  1  1
 24100  1  0
 27101  1  6
 28102  1  0
 30103  1  1
 31104  1  0
 32105  1  0
 32106  1  0
 32107  1  0
 33108  1  0
 33109  1  0
 33110  1  0
 37111  1  0
 37112  1  0
 38113  1  0
 38114  1  0
 45115  1  0
 45116  1  0
 45117  1  0
 46118  1  0
 46119  1  0
 46120  1  0
 47121  1  0
 47122  1  0
 47123  1  0
 48124  1  0
 48125  1  0
 48126  1  0
 50127  1  0
 50128  1  0
 51129  1  0
 51130  1  0
 53131  1  0
 53132  1  0
 53133  1  0
 55134  1  0
 55135  1  0
 56136  1  6
 57137  1  0
 57138  1  0
 59139  1  0
 59140  1  0
 60141  1  0
 60142  1  0
 63143  1  0
 63144  1  0
 64145  1  0
 64146  1  0
 65147  1  0
 65148  1  0
 69149  1  0
 70150  1  0
 72151  1  0
 41 42  3  0
M  END
$$$$
