 xtb: 6.7.1 (edcfbbe)
          08172520463D

151157  0     0  0            999 V2000
    2.9351    7.5928   -6.3209 C   0  0  0  0  0  0  0  0  0  0  0  0
    3.0484    6.0760   -6.4721 C   0  0  0  0  0  0  0  0  0  0  0  0
    4.3657    5.6549   -6.7970 O   0  0  0  0  0  0  0  0  0  0  0  0
    5.2680    5.6779   -5.7229 C   0  0  0  0  0  0  0  0  0  0  0  0
    2.1615    5.5839   -7.5984 C   0  0  0  0  0  0  0  0  0  0  0  0
    2.0611    6.3715   -8.6561 N   0  0  0  0  0  0  0  0  0  0  0  0
    1.3092    5.9992   -9.6739 C   0  0  0  0  0  0  0  0  0  0  0  0
    0.5922    4.8130   -9.6907 C   0  0  0  0  0  0  0  0  0  0  0  0
    0.6866    3.9849   -8.5869 C   0  0  0  0  0  0  0  0  0  0  0  0
    1.4922    4.3555   -7.5123 C   0  0  0  0  0  0  0  0  0  0  0  0
    1.6033    3.4878   -6.3320 C   0  0  0  0  0  0  0  0  0  0  0  0
    0.5775    3.4177   -5.4142 N   0  0  0  0  0  0  0  0  0  0  0  0
   -0.6608    4.1473   -5.4583 C   0  0  0  0  0  0  0  0  0  0  0  0
   -1.8251    3.2801   -5.9369 C   0  0  0  0  0  0  0  0  0  0  0  0
    2.6418    2.6719   -5.9498 C   0  0  0  0  0  0  0  0  0  0  0  0
    3.9350    2.4673   -6.6704 C   0  0  0  0  0  0  0  0  0  0  0  0
    3.9818    1.2464   -7.6179 C   0  0  0  0  0  0  0  0  0  0  0  0
    2.7479    1.2098   -8.5188 C   0  0  0  0  0  0  0  0  0  0  0  0
    5.2384    1.3531   -8.4855 C   0  0  0  0  0  0  0  0  0  0  0  0
    4.0092   -0.0707   -6.8226 C   0  0  0  0  0  0  0  0  0  0  0  0
    5.2193   -0.2336   -6.0701 O   0  0  0  0  0  0  0  0  0  0  0  0
    6.1476   -1.0481   -6.5669 C   0  0  0  0  0  0  0  0  0  0  0  0
    7.3824   -1.0659   -5.6654 C   0  0  0  0  0  0  0  0  0  0  0  0
    7.2437   -2.1999   -4.7463 N   0  0  0  0  0  0  0  0  0  0  0  0
    8.3235   -2.2648   -3.8484 N   0  0  0  0  0  0  0  0  0  0  0  0
    8.2957   -2.0508   -2.5197 C   0  0  0  0  0  0  0  0  0  0  0  0
    6.9286   -1.7444   -1.8899 C   0  0  0  0  0  0  0  0  0  0  0  0
    6.9991   -2.0464   -0.4833 N   0  0  0  0  0  0  0  0  0  0  0  0
    6.0802   -2.7955    0.1382 C   0  0  0  0  0  0  0  0  0  0  0  0
    6.3362   -2.9987    1.6326 C   0  0  0  0  0  0  0  0  0  0  0  0
    6.5553   -4.4924    1.9358 C   0  0  0  0  0  0  0  0  0  0  0  0
    6.8347   -4.6975    3.4219 C   0  0  0  0  0  0  0  0  0  0  0  0
    7.7271   -5.0056    1.1007 C   0  0  0  0  0  0  0  0  0  0  0  0
    5.2426   -2.4166    2.4074 N   0  0  0  0  0  0  0  0  0  0  0  0
    5.5506   -1.3768    3.2045 C   0  0  0  0  0  0  0  0  0  0  0  0
    4.4601   -0.7634    4.1118 C   0  0  0  0  0  0  0  0  0  0  0  0
    4.1111   -1.7180    5.2575 C   0  0  0  0  0  0  0  0  0  0  0  0
    3.1119   -1.0594    6.2111 C   0  0  0  0  0  0  0  0  0  0  0  0
    3.6211    0.2027    6.6879 N   0  0  0  0  0  0  0  0  0  0  0  0
    3.8663    0.3803    8.0096 C   0  0  0  0  0  0  0  0  0  0  0  0
    4.3796    1.6807    8.3702 C   0  0  0  0  0  0  0  0  0  0  0  0
    4.8030    2.7004    8.8494 C   0  0  0  0  0  0  0  0  0  0  0  0
    5.2172    3.9914    9.3926 C   0  0  0  0  0  0  0  0  0  0  0  0
    6.6243    4.2259    9.0523 N   0  0  0  0  0  0  0  0  0  0  0  0
    6.9518    4.0290    7.6572 C   0  0  0  0  0  0  0  0  0  0  0  0
    7.1689    5.4770    9.5309 C   0  0  0  0  0  0  0  0  0  0  0  0
    4.2410    5.0540    8.8416 C   0  0  0  0  0  0  0  0  0  0  0  0
    5.0617    3.8846   10.9196 C   0  0  0  0  0  0  0  0  0  0  0  0
    3.6457   -0.4744    8.8483 O   0  0  0  0  0  0  0  0  0  0  0  0
    3.9219    1.1520    5.6474 C   0  0  0  0  0  0  0  0  0  0  0  0
    4.9540    0.5701    4.6790 C   0  0  0  0  0  0  0  0  0  0  0  0
    6.6840   -0.9300    3.2881 O   0  0  0  0  0  0  0  0  0  0  0  0
    3.9471   -3.0425    2.2515 C   0  0  0  0  0  0  0  0  0  0  0  0
    5.1269   -3.2871   -0.4450 O   0  0  0  0  0  0  0  0  0  0  0  0
    6.5834   -0.2634   -2.1072 C   0  0  0  0  0  0  0  0  0  0  0  0
    5.1727    0.1272   -1.6698 C   0  0  0  0  0  0  0  0  0  0  0  0
    4.0622   -0.7897   -2.2081 C   0  0  0  0  0  0  0  0  0  0  0  0
    2.7699   -0.2288   -1.8744 N   0  0  0  0  0  0  0  0  0  0  0  0
    2.6656   -0.1377   -0.4298 C   0  0  0  0  0  0  0  0  0  0  0  0
    3.8417    0.6586    0.1576 C   0  0  0  0  0  0  0  0  0  0  0  0
    5.0920    0.1524   -0.2546 O   0  0  0  0  0  0  0  0  0  0  0  0
    9.2983   -2.1237   -1.8301 O   0  0  0  0  0  0  0  0  0  0  0  0
    9.5636   -2.5537   -4.5426 C   0  0  0  0  0  0  0  0  0  0  0  0
    9.8489   -1.4430   -5.5517 C   0  0  0  0  0  0  0  0  0  0  0  0
    8.6529   -1.2889   -6.4875 C   0  0  0  0  0  0  0  0  0  0  0  0
    6.0364   -1.6986   -7.5687 O   0  0  0  0  0  0  0  0  0  0  0  0
    2.2431    2.0700   -4.7187 C   0  0  0  0  0  0  0  0  0  0  0  0
    0.9515    2.5533   -4.4190 C   0  0  0  0  0  0  0  0  0  0  0  0
    0.2953    2.1387   -3.2665 C   0  0  0  0  0  0  0  0  0  0  0  0
    0.9298    1.2414   -2.4393 C   0  0  0  0  0  0  0  0  0  0  0  0
    2.2293    0.7560   -2.7017 C   0  0  0  0  0  0  0  0  0  0  0  0
    2.8857    1.1956   -3.8444 C   0  0  0  0  0  0  0  0  0  0  0  0
    3.3004   -0.4877    3.3796 F   0  0  0  0  0  0  0  0  0  0  0  0
    3.5424    7.9436   -5.4905 H   0  0  0  0  0  0  0  0  0  0  0  0
    3.2651    8.0661   -7.2404 H   0  0  0  0  0  0  0  0  0  0  0  0
    1.8992    7.8636   -6.1355 H   0  0  0  0  0  0  0  0  0  0  0  0
    2.7405    5.5826   -5.5339 H   0  0  0  0  0  0  0  0  0  0  0  0
    4.8837    5.1004   -4.8722 H   0  0  0  0  0  0  0  0  0  0  0  0
    6.1849    5.2182   -6.0880 H   0  0  0  0  0  0  0  0  0  0  0  0
    5.4890    6.6976   -5.3896 H   0  0  0  0  0  0  0  0  0  0  0  0
    1.2770    6.6898  -10.5063 H   0  0  0  0  0  0  0  0  0  0  0  0
   -0.0197    4.5455  -10.5381 H   0  0  0  0  0  0  0  0  0  0  0  0
    0.1500    3.0472   -8.5556 H   0  0  0  0  0  0  0  0  0  0  0  0
   -0.8761    4.5245   -4.4527 H   0  0  0  0  0  0  0  0  0  0  0  0
   -0.5340    5.0040   -6.1266 H   0  0  0  0  0  0  0  0  0  0  0  0
   -1.9272    2.4033   -5.3023 H   0  0  0  0  0  0  0  0  0  0  0  0
   -2.7503    3.8490   -5.9023 H   0  0  0  0  0  0  0  0  0  0  0  0
   -1.6600    2.9483   -6.9585 H   0  0  0  0  0  0  0  0  0  0  0  0
    4.1460    3.3600   -7.2619 H   0  0  0  0  0  0  0  0  0  0  0  0
    4.7348    2.3519   -5.9346 H   0  0  0  0  0  0  0  0  0  0  0  0
    1.8478    1.0625   -7.9268 H   0  0  0  0  0  0  0  0  0  0  0  0
    2.6597    2.1469   -9.0621 H   0  0  0  0  0  0  0  0  0  0  0  0
    2.8265    0.3980   -9.2384 H   0  0  0  0  0  0  0  0  0  0  0  0
    6.1274    1.4685   -7.8678 H   0  0  0  0  0  0  0  0  0  0  0  0
    5.3597    0.4624   -9.0983 H   0  0  0  0  0  0  0  0  0  0  0  0
    5.1664    2.2190   -9.1390 H   0  0  0  0  0  0  0  0  0  0  0  0
    3.1922   -0.0916   -6.0991 H   0  0  0  0  0  0  0  0  0  0  0  0
    3.9196   -0.9191   -7.5078 H   0  0  0  0  0  0  0  0  0  0  0  0
    7.4386   -0.0995   -5.1349 H   0  0  0  0  0  0  0  0  0  0  0  0
    6.3604   -2.1749   -4.2489 H   0  0  0  0  0  0  0  0  0  0  0  0
    6.1568   -2.4027   -2.3008 H   0  0  0  0  0  0  0  0  0  0  0  0
    7.8023   -1.6824    0.0070 H   0  0  0  0  0  0  0  0  0  0  0  0
    7.2329   -2.4454    1.9263 H   0  0  0  0  0  0  0  0  0  0  0  0
    5.6573   -5.0471    1.6485 H   0  0  0  0  0  0  0  0  0  0  0  0
    6.0040   -4.3560    4.0346 H   0  0  0  0  0  0  0  0  0  0  0  0
    7.0021   -5.7516    3.6300 H   0  0  0  0  0  0  0  0  0  0  0  0
    7.7222   -4.1421    3.7162 H   0  0  0  0  0  0  0  0  0  0  0  0
    7.9140   -6.0532    1.3242 H   0  0  0  0  0  0  0  0  0  0  0  0
    7.5154   -4.9169    0.0379 H   0  0  0  0  0  0  0  0  0  0  0  0
    8.6306   -4.4407    1.3193 H   0  0  0  0  0  0  0  0  0  0  0  0
    3.6807   -2.6409    4.8714 H   0  0  0  0  0  0  0  0  0  0  0  0
    5.0343   -1.9546    5.7887 H   0  0  0  0  0  0  0  0  0  0  0  0
    2.1646   -0.8888    5.6853 H   0  0  0  0  0  0  0  0  0  0  0  0
    2.9335   -1.6968    7.0795 H   0  0  0  0  0  0  0  0  0  0  0  0
    8.0372    4.0346    7.5579 H   0  0  0  0  0  0  0  0  0  0  0  0
    6.5817    3.0607    7.3269 H   0  0  0  0  0  0  0  0  0  0  0  0
    6.5459    4.8113    6.9959 H   0  0  0  0  0  0  0  0  0  0  0  0
    6.9503    5.6068   10.5869 H   0  0  0  0  0  0  0  0  0  0  0  0
    8.2523    5.4388    9.4133 H   0  0  0  0  0  0  0  0  0  0  0  0
    6.7993    6.3544    8.9774 H   0  0  0  0  0  0  0  0  0  0  0  0
    3.2202    4.7766    9.0918 H   0  0  0  0  0  0  0  0  0  0  0  0
    4.4552    6.0255    9.2805 H   0  0  0  0  0  0  0  0  0  0  0  0
    4.3218    5.1269    7.7591 H   0  0  0  0  0  0  0  0  0  0  0  0
    5.8699    3.2821   11.3251 H   0  0  0  0  0  0  0  0  0  0  0  0
    5.0722    4.8655   11.3877 H   0  0  0  0  0  0  0  0  0  0  0  0
    4.1157    3.4035   11.1561 H   0  0  0  0  0  0  0  0  0  0  0  0
    2.9993    1.3793    5.0978 H   0  0  0  0  0  0  0  0  0  0  0  0
    4.3001    2.0720    6.0960 H   0  0  0  0  0  0  0  0  0  0  0  0
    5.9023    0.3962    5.1859 H   0  0  0  0  0  0  0  0  0  0  0  0
    5.1308    1.2641    3.8565 H   0  0  0  0  0  0  0  0  0  0  0  0
    3.8489   -3.9081    2.9133 H   0  0  0  0  0  0  0  0  0  0  0  0
    3.1384   -2.3485    2.4480 H   0  0  0  0  0  0  0  0  0  0  0  0
    3.8593   -3.3841    1.2208 H   0  0  0  0  0  0  0  0  0  0  0  0
    7.2963    0.3384   -1.5391 H   0  0  0  0  0  0  0  0  0  0  0  0
    6.6837   -0.0070   -3.1623 H   0  0  0  0  0  0  0  0  0  0  0  0
    4.9839    1.1525   -2.0394 H   0  0  0  0  0  0  0  0  0  0  0  0
    4.1417   -0.9420   -3.2843 H   0  0  0  0  0  0  0  0  0  0  0  0
    4.1272   -1.7592   -1.7044 H   0  0  0  0  0  0  0  0  0  0  0  0
    1.7330    0.3356   -0.1311 H   0  0  0  0  0  0  0  0  0  0  0  0
    2.6896   -1.1571   -0.0324 H   0  0  0  0  0  0  0  0  0  0  0  0
    3.7531    1.7131   -0.1545 H   0  0  0  0  0  0  0  0  0  0  0  0
    3.8349    0.6029    1.2456 H   0  0  0  0  0  0  0  0  0  0  0  0
   10.3497   -2.6297   -3.7915 H   0  0  0  0  0  0  0  0  0  0  0  0
    9.4476   -3.5095   -5.0608 H   0  0  0  0  0  0  0  0  0  0  0  0
   10.0256   -0.5068   -5.0172 H   0  0  0  0  0  0  0  0  0  0  0  0
   10.7452   -1.6860   -6.1212 H   0  0  0  0  0  0  0  0  0  0  0  0
    8.5141   -2.1958   -7.0769 H   0  0  0  0  0  0  0  0  0  0  0  0
    8.8003   -0.4523   -7.1712 H   0  0  0  0  0  0  0  0  0  0  0  0
   -0.6944    2.4946   -3.0209 H   0  0  0  0  0  0  0  0  0  0  0  0
    0.4018    0.8866   -1.5682 H   0  0  0  0  0  0  0  0  0  0  0  0
    3.8897    0.8878   -4.0828 H   0  0  0  0  0  0  0  0  0  0  0  0
  1  2  1  0  0  0  0
  2  3  1  0  0  0  0
  3  4  1  0  0  0  0
  2  5  1  0  0  0  0
  5  6  4  0  0  0  0
  6  7  4  0  0  0  0
  7  8  4  0  0  0  0
  8  9  4  0  0  0  0
  5 10  4  0  0  0  0
  9 10  4  0  0  0  0
 10 11  1  0  0  0  0
 11 12  1  0  0  0  0
 12 13  1  0  0  0  0
 13 14  1  0  0  0  0
 11 15  2  0  0  0  0
 15 16  1  0  0  0  0
 16 17  1  0  0  0  0
 17 18  1  0  0  0  0
 17 19  1  0  0  0  0
 17 20  1  0  0  0  0
 20 21  1  0  0  0  0
 21 22  1  0  0  0  0
 22 23  1  0  0  0  0
 23 24  1  0  0  0  0
 24 25  1  0  0  0  0
 25 26  4  0  0  0  0
 26 27  1  0  0  0  0
 27 28  1  0  0  0  0
 28 29  4  0  0  0  0
 29 30  1  0  0  0  0
 30 31  1  0  0  0  0
 31 32  1  0  0  0  0
 31 33  1  0  0  0  0
 30 34  1  0  0  0  0
 34 35  4  0  0  0  0
 35 36  1  0  0  0  0
 36 37  1  0  0  0  0
 37 38  1  0  0  0  0
 38 39  1  0  0  0  0
 39 40  4  0  0  0  0
 40 41  1  0  0  0  0
 41 42  3  0  0  0  0
 42 43  1  0  0  0  0
 43 44  1  0  0  0  0
 44 45  1  0  0  0  0
 44 46  1  0  0  0  0
 43 47  1  0  0  0  0
 43 48  1  0  0  0  0
 40 49  2  0  0  0  0
 39 50  1  0  0  0  0
 36 51  1  0  0  0  0
 50 51  1  0  0  0  0
 35 52  2  0  0  0  0
 34 53  1  0  0  0  0
 29 54  2  0  0  0  0
 27 55  1  0  0  0  0
 55 56  1  0  0  0  0
 56 57  1  0  0  0  0
 57 58  1  0  0  0  0
 58 59  1  0  0  0  0
 59 60  1  0  0  0  0
 56 61  1  0  0  0  0
 60 61  1  0  0  0  0
 26 62  2  0  0  0  0
 25 63  1  0  0  0  0
 63 64  1  0  0  0  0
 23 65  1  0  0  0  0
 64 65  1  0  0  0  0
 22 66  2  0  0  0  0
 15 67  4  0  0  0  0
 12 68  1  0  0  0  0
 67 68  4  0  0  0  0
 68 69  4  0  0  0  0
 69 70  2  0  0  0  0
 58 71  1  0  0  0  0
 70 71  4  0  0  0  0
 67 72  4  0  0  0  0
 71 72  4  0  0  0  0
 36 73  1  0  0  0  0
  1 74  1  0  0  0  0
  1 75  1  0  0  0  0
  1 76  1  0  0  0  0
  2 77  1  0  0  0  0
  4 78  1  0  0  0  0
  4 79  1  0  0  0  0
  4 80  1  0  0  0  0
  7 81  1  0  0  0  0
  8 82  1  0  0  0  0
  9 83  1  0  0  0  0
 13 84  1  0  0  0  0
 13 85  1  0  0  0  0
 14 86  1  0  0  0  0
 14 87  1  0  0  0  0
 14 88  1  0  0  0  0
 16 89  1  0  0  0  0
 16 90  1  0  0  0  0
 18 91  1  0  0  0  0
 18 92  1  0  0  0  0
 18 93  1  0  0  0  0
 19 94  1  0  0  0  0
 19 95  1  0  0  0  0
 19 96  1  0  0  0  0
 20 97  1  0  0  0  0
 20 98  1  0  0  0  0
 23 99  1  0  0  0  0
 24100  1  0  0  0  0
 27101  1  0  0  0  0
 28102  1  0  0  0  0
 30103  1  0  0  0  0
 31104  1  0  0  0  0
 32105  1  0  0  0  0
 32106  1  0  0  0  0
 32107  1  0  0  0  0
 33108  1  0  0  0  0
 33109  1  0  0  0  0
 33110  1  0  0  0  0
 37111  1  0  0  0  0
 37112  1  0  0  0  0
 38113  1  0  0  0  0
 38114  1  0  0  0  0
 45115  1  0  0  0  0
 45116  1  0  0  0  0
 45117  1  0  0  0  0
 46118  1  0  0  0  0
 46119  1  0  0  0  0
 46120  1  0  0  0  0
 47121  1  0  0  0  0
 47122  1  0  0  0  0
 47123  1  0  0  0  0
 48124  1  0  0  0  0
 48125  1  0  0  0  0
 48126  1  0  0  0  0
 50127  1  0  0  0  0
 50128  1  0  0  0  0
 51129  1  0  0  0  0
 51130  1  0  0  0  0
 53131  1  0  0  0  0
 53132  1  0  0  0  0
 53133  1  0  0  0  0
 55134  1  0  0  0  0
 55135  1  0  0  0  0
 56136  1  0  0  0  0
 57137  1  0  0  0  0
 57138  1  0  0  0  0
 59139  1  0  0  0  0
 59140  1  0  0  0  0
 60141  1  0  0  0  0
 60142  1  0  0  0  0
 63143  1  0  0  0  0
 63144  1  0  0  0  0
 64145  1  0  0  0  0
 64146  1  0  0  0  0
 65147  1  0  0  0  0
 65148  1  0  0  0  0
 69149  1  0  0  0  0
 70150  1  0  0  0  0
 72151  1  0  0  0  0
M  END
$$$$
