obj03
     RDKit          3D

151157  0  0  0  0  0  0  0  0999 V2000
   17.2149   22.9631   61.4239 C   0  0  0  0  0  0  0  0  0  0  0  0
   16.4367   24.1263   60.8043 C   0  0  2  0  0  0  0  0  0  0  0  0
   16.6628   25.3166   61.5766 O   0  0  0  0  0  0  0  0  0  0  0  0
   17.8621   25.9908   61.2213 C   0  0  0  0  0  0  0  0  0  0  0  0
   14.9327   23.8545   60.7419 C   0  0  0  0  0  0  0  0  0  0  0  0
   14.4255   22.9605   61.6410 N   0  0  0  0  0  0  0  0  0  0  0  0
   13.0986   22.7145   61.6146 C   0  0  0  0  0  0  0  0  0  0  0  0
   12.2263   23.3009   60.7191 C   0  0  0  0  0  0  0  0  0  0  0  0
   12.7438   24.2028   59.7968 C   0  0  0  0  0  0  0  0  0  0  0  0
   14.1105   24.5040   59.8004 C   0  0  0  0  0  0  0  0  0  0  0  0
   14.6341   25.4690   58.8251 C   0  0  0  0  0  0  0  0  0  0  0  0
   14.9850   25.1308   57.5329 N   0  0  0  0  0  0  0  0  0  0  0  0
   14.8119   23.8177   56.9221 C   0  0  0  0  0  0  0  0  0  0  0  0
   13.5475   23.7323   56.0841 C   0  0  0  0  0  0  0  0  0  0  0  0
   14.9381   26.8180   59.0061 C   0  0  0  0  0  0  0  0  0  0  0  0
   14.6744   27.6186   60.2605 C   0  0  0  0  0  0  0  0  0  0  0  0
   13.3970   28.5136   60.2648 C   0  0  0  0  0  0  0  0  0  0  0  0
   13.1332   28.9362   61.7314 C   0  0  0  0  0  0  0  0  0  0  0  0
   12.1488   27.7688   59.7645 C   0  0  0  0  0  0  0  0  0  0  0  0
   13.5881   29.7863   59.4114 C   0  0  0  0  0  0  0  0  0  0  0  0
   14.6835   30.5464   59.9432 O   0  0  0  0  0  0  0  0  0  0  0  0
   15.0232   31.6578   59.2357 C   0  0  0  0  0  0  0  0  0  0  0  0
   16.2604   32.3056   59.8620 C   0  0  1  0  0  0  0  0  0  0  0  0
   16.5842   33.5473   59.1398 N   0  0  0  0  0  0  0  0  0  0  0  0
   17.7975   34.0975   59.6082 N   0  0  0  0  0  0  0  0  0  0  0  0
   18.8665   34.4916   58.7909 C   0  0  0  0  0  0  0  0  0  0  0  0
   18.9072   33.9431   57.3390 C   0  0  1  0  0  0  0  0  0  0  0  0
   19.5608   34.9052   56.4546 N   0  0  0  0  0  0  0  0  0  0  0  0
   18.9413   36.1117   56.1901 C   0  0  0  0  0  0  0  0  0  0  0  0
   19.6178   36.9206   55.0634 C   0  0  2  0  0  0  0  0  0  0  0  0
   19.4271   38.4487   55.2344 C   0  0  0  0  0  0  0  0  0  0  0  0
   20.0729   38.9333   56.5410 C   0  0  0  0  0  0  0  0  0  0  0  0
   20.0549   39.2206   54.0657 C   0  0  0  0  0  0  0  0  0  0  0  0
   19.1134   36.3925   53.7671 N   0  0  0  0  0  0  0  0  0  0  0  0
   19.8927   35.4306   53.1234 C   0  0  0  0  0  0  0  0  0  0  0  0
   19.5557   35.0338   51.6627 C   0  0  0  0  0  0  0  0  0  0  0  0
   19.5164   36.2763   50.7531 C   0  0  0  0  0  0  0  0  0  0  0  0
   19.3285   35.8692   49.2969 C   0  0  0  0  0  0  0  0  0  0  0  0
   20.4002   34.9656   48.9175 N   0  0  0  0  0  0  0  0  0  0  0  0
   21.5001   35.4996   48.2491 C   0  0  0  0  0  0  0  0  0  0  0  0
   22.6924   34.6930   48.1123 C   0  0  0  0  0  0  0  0  0  0  0  0
   23.7115   34.0595   48.0207 C   0  0  0  0  0  0  0  0  0  0  0  0
   24.9850   33.3027   47.9160 C   0  0  0  0  0  0  0  0  0  0  0  0
   26.0419   34.0081   48.6894 N   0  0  0  0  0  0  0  0  0  0  0  0
   25.7477   34.1526   50.1203 C   0  0  0  0  0  0  0  0  0  0  0  0
   27.3908   33.4661   48.5216 C   0  0  0  0  0  0  0  0  0  0  0  0
   24.7259   31.8565   48.3896 C   0  0  0  0  0  0  0  0  0  0  0  0
   25.3420   33.2615   46.4104 C   0  0  0  0  0  0  0  0  0  0  0  0
   21.5232   36.6351   47.7873 O   0  0  0  0  0  0  0  0  0  0  0  0
   20.4218   33.7187   49.6715 C   0  0  0  0  0  0  0  0  0  0  0  0
   20.6024   34.0167   51.1549 C   0  0  0  0  0  0  0  0  0  0  0  0
   20.8652   34.9308   53.7043 O   0  0  0  0  0  0  0  0  0  0  0  0
   17.6967   36.6094   53.4652 C   0  0  0  0  0  0  0  0  0  0  0  0
   17.8995   36.4631   56.7403 O   0  0  0  0  0  0  0  0  0  0  0  0
   19.6853   32.6142   57.3652 C   0  0  0  0  0  0  0  0  0  0  0  0
   19.2351   31.5819   56.3185 C   0  0  1  0  0  0  0  0  0  0  0  0
   18.1205   30.6648   56.8768 C   0  0  0  0  0  0  0  0  0  0  0  0
   17.7220   29.6907   55.8429 N   0  0  0  0  0  0  0  0  0  0  0  0
   17.3049   30.3633   54.5903 C   0  0  0  0  0  0  0  0  0  0  0  0
   18.4280   31.3008   54.1118 C   0  0  0  0  0  0  0  0  0  0  0  0
   18.8050   32.2520   55.1215 O   0  0  0  0  0  0  0  0  0  0  0  0
   19.8107   35.1512   59.2416 O   0  0  0  0  0  0  0  0  0  0  0  0
   17.7336   34.5402   61.0054 C   0  0  0  0  0  0  0  0  0  0  0  0
   17.2841   33.3845   61.9050 C   0  0  0  0  0  0  0  0  0  0  0  0
   16.0536   32.6636   61.3403 C   0  0  0  0  0  0  0  0  0  0  0  0
   14.4856   32.0182   58.1969 O   0  0  0  0  0  0  0  0  0  0  0  0
   15.6498   27.2443   57.8323 C   0  0  0  0  0  0  0  0  0  0  0  0
   15.6235   26.1913   56.9199 C   0  0  0  0  0  0  0  0  0  0  0  0
   16.2045   26.3003   55.6497 C   0  0  0  0  0  0  0  0  0  0  0  0
   16.8677   27.4911   55.3276 C   0  0  0  0  0  0  0  0  0  0  0  0
   16.9648   28.5708   56.2124 C   0  0  0  0  0  0  0  0  0  0  0  0
   16.3422   28.4279   57.4670 C   0  0  0  0  0  0  0  0  0  0  0  0
   18.3365   34.4075   51.5875 F   0  0  0  0  0  0  0  0  0  0  0  0
   16.9838   22.8514   62.4891 H   0  0  0  0  0  0  0  0  0  0  0  0
   16.9961   22.0185   60.9144 H   0  0  0  0  0  0  0  0  0  0  0  0
   18.2935   23.1368   61.3578 H   0  0  0  0  0  0  0  0  0  0  0  0
   16.8081   24.2601   59.7806 H   0  0  0  0  0  0  0  0  0  0  0  0
   17.9093   26.9226   61.7915 H   0  0  0  0  0  0  0  0  0  0  0  0
   18.7367   25.3890   61.4768 H   0  0  0  0  0  0  0  0  0  0  0  0
   17.8713   26.2394   60.1564 H   0  0  0  0  0  0  0  0  0  0  0  0
   12.7462   22.0065   62.3590 H   0  0  0  0  0  0  0  0  0  0  0  0
   11.1679   23.0669   60.7411 H   0  0  0  0  0  0  0  0  0  0  0  0
   12.0776   24.6853   59.0878 H   0  0  0  0  0  0  0  0  0  0  0  0
   15.6963   23.6106   56.3104 H   0  0  0  0  0  0  0  0  0  0  0  0
   14.7999   23.0587   57.7109 H   0  0  0  0  0  0  0  0  0  0  0  0
   12.6558   23.9361   56.6855 H   0  0  0  0  0  0  0  0  0  0  0  0
   13.5671   24.4556   55.2622 H   0  0  0  0  0  0  0  0  0  0  0  0
   13.4462   22.7310   55.6529 H   0  0  0  0  0  0  0  0  0  0  0  0
   14.5987   26.9184   61.1021 H   0  0  0  0  0  0  0  0  0  0  0  0
   15.5625   28.2251   60.4821 H   0  0  0  0  0  0  0  0  0  0  0  0
   13.9993   29.4437   62.1695 H   0  0  0  0  0  0  0  0  0  0  0  0
   12.2779   29.6174   61.7980 H   0  0  0  0  0  0  0  0  0  0  0  0
   12.9107   28.0661   62.3587 H   0  0  0  0  0  0  0  0  0  0  0  0
   11.9485   26.8822   60.3741 H   0  0  0  0  0  0  0  0  0  0  0  0
   11.2600   28.4072   59.8277 H   0  0  0  0  0  0  0  0  0  0  0  0
   12.2477   27.4590   58.7191 H   0  0  0  0  0  0  0  0  0  0  0  0
   13.7813   29.5300   58.3646 H   0  0  0  0  0  0  0  0  0  0  0  0
   12.6847   30.4083   59.4526 H   0  0  0  0  0  0  0  0  0  0  0  0
   17.0855   31.5920   59.7458 H   0  0  0  0  0  0  0  0  0  0  0  0
   16.5040   33.4363   58.1313 H   0  0  0  0  0  0  0  0  0  0  0  0
   17.8999   33.8087   56.9453 H   0  0  0  0  0  0  0  0  0  0  0  0
   20.1232   34.5344   55.6874 H   0  0  0  0  0  0  0  0  0  0  0  0
   20.6974   36.7287   55.1271 H   0  0  0  0  0  0  0  0  0  0  0  0
   18.3585   38.6962   55.2783 H   0  0  0  0  0  0  0  0  0  0  0  0
   19.6071   38.4710   57.4167 H   0  0  0  0  0  0  0  0  0  0  0  0
   21.1441   38.7000   56.5641 H   0  0  0  0  0  0  0  0  0  0  0  0
   19.9640   40.0187   56.6490 H   0  0  0  0  0  0  0  0  0  0  0  0
   19.9581   40.3010   54.2187 H   0  0  0  0  0  0  0  0  0  0  0  0
   21.1211   38.9877   53.9665 H   0  0  0  0  0  0  0  0  0  0  0  0
   19.5670   38.9810   53.1153 H   0  0  0  0  0  0  0  0  0  0  0  0
   18.6968   36.9475   51.0225 H   0  0  0  0  0  0  0  0  0  0  0  0
   20.4469   36.8485   50.8690 H   0  0  0  0  0  0  0  0  0  0  0  0
   18.3742   35.3500   49.1550 H   0  0  0  0  0  0  0  0  0  0  0  0
   19.3133   36.7564   48.6581 H   0  0  0  0  0  0  0  0  0  0  0  0
   25.6797   33.1903   50.6350 H   0  0  0  0  0  0  0  0  0  0  0  0
   26.5356   34.7362   50.6132 H   0  0  0  0  0  0  0  0  0  0  0  0
   24.8267   34.7157   50.2895 H   0  0  0  0  0  0  0  0  0  0  0  0
   28.1159   34.0600   49.0929 H   0  0  0  0  0  0  0  0  0  0  0  0
   27.4731   32.4281   48.8598 H   0  0  0  0  0  0  0  0  0  0  0  0
   27.7269   33.5316   47.4821 H   0  0  0  0  0  0  0  0  0  0  0  0
   24.3644   31.8185   49.4249 H   0  0  0  0  0  0  0  0  0  0  0  0
   23.9529   31.3754   47.7748 H   0  0  0  0  0  0  0  0  0  0  0  0
   25.6237   31.2325   48.3198 H   0  0  0  0  0  0  0  0  0  0  0  0
   26.1892   32.5996   46.2037 H   0  0  0  0  0  0  0  0  0  0  0  0
   24.4985   32.8911   45.8114 H   0  0  0  0  0  0  0  0  0  0  0  0
   25.5850   34.2619   46.0296 H   0  0  0  0  0  0  0  0  0  0  0  0
   19.4683   33.2062   49.4967 H   0  0  0  0  0  0  0  0  0  0  0  0
   21.2141   33.0535   49.3194 H   0  0  0  0  0  0  0  0  0  0  0  0
   21.6166   34.4056   51.3182 H   0  0  0  0  0  0  0  0  0  0  0  0
   20.5163   33.0796   51.7184 H   0  0  0  0  0  0  0  0  0  0  0  0
   17.0845   36.2194   54.2822 H   0  0  0  0  0  0  0  0  0  0  0  0
   17.5115   37.6815   53.3505 H   0  0  0  0  0  0  0  0  0  0  0  0
   17.3721   36.1053   52.5577 H   0  0  0  0  0  0  0  0  0  0  0  0
   20.7481   32.8321   57.1861 H   0  0  0  0  0  0  0  0  0  0  0  0
   19.6510   32.1502   58.3602 H   0  0  0  0  0  0  0  0  0  0  0  0
   20.1053   30.9612   56.0649 H   0  0  0  0  0  0  0  0  0  0  0  0
   18.5065   30.1481   57.7636 H   0  0  0  0  0  0  0  0  0  0  0  0
   17.2495   31.2635   57.1614 H   0  0  0  0  0  0  0  0  0  0  0  0
   17.0846   29.6558   53.7841 H   0  0  0  0  0  0  0  0  0  0  0  0
   16.3975   30.9458   54.7889 H   0  0  0  0  0  0  0  0  0  0  0  0
   19.3169   30.7319   53.8185 H   0  0  0  0  0  0  0  0  0  0  0  0
   18.0909   31.8655   53.2376 H   0  0  0  0  0  0  0  0  0  0  0  0
   18.7042   34.9153   61.3435 H   0  0  0  0  0  0  0  0  0  0  0  0
   17.0215   35.3726   61.0579 H   0  0  0  0  0  0  0  0  0  0  0  0
   18.1041   32.6584   61.9839 H   0  0  0  0  0  0  0  0  0  0  0  0
   17.0785   33.7519   62.9169 H   0  0  0  0  0  0  0  0  0  0  0  0
   15.1698   33.3059   61.4513 H   0  0  0  0  0  0  0  0  0  0  0  0
   15.8579   31.7618   61.9329 H   0  0  0  0  0  0  0  0  0  0  0  0
   16.1810   25.4838   54.9372 H   0  0  0  0  0  0  0  0  0  0  0  0
   17.3704   27.5383   54.3629 H   0  0  0  0  0  0  0  0  0  0  0  0
   16.3913   29.2219   58.1969 H   0  0  0  0  0  0  0  0  0  0  0  0
  1  2  1  0
  2  3  1  0
  2  5  1  0
  3  4  1  0
  5  6  2  0
  5 10  1  0
  6  7  1  0
  7  8  2  0
  8  9  1  0
  9 10  2  0
 10 11  1  0
 11 12  1  0
 11 15  2  0
 12 13  1  0
 12 68  1  0
 13 14  1  0
 15 16  1  0
 15 67  1  0
 16 17  1  0
 17 18  1  0
 17 19  1  0
 17 20  1  0
 20 21  1  0
 21 22  1  0
 22 23  1  0
 22 66  2  0
 23 24  1  0
 23 65  1  0
 24 25  1  0
 25 26  1  0
 25 63  1  0
 26 27  1  0
 26 62  2  0
 27 28  1  0
 27 55  1  0
 28 29  1  0
 29 30  1  0
 29 54  2  0
 30 31  1  0
 30 34  1  0
 31 32  1  0
 31 33  1  0
 34 35  1  0
 34 53  1  0
 35 36  1  0
 35 52  2  0
 36 37  1  0
 36 51  1  0
 36 73  1  0
 37 38  1  0
 38 39  1  0
 39 40  1  0
 39 50  1  0
 40 41  1  0
 40 49  2  0
 42 43  1  0
 43 44  1  0
 43 47  1  0
 43 48  1  0
 44 45  1  0
 44 46  1  0
 50 51  1  0
 55 56  1  0
 56 57  1  0
 56 61  1  0
 57 58  1  0
 58 59  1  0
 58 71  1  0
 59 60  1  0
 60 61  1  0
 63 64  1  0
 64 65  1  0
 67 68  2  0
 67 72  1  0
 68 69  1  0
 69 70  2  0
 70 71  1  0
 71 72  2  0
  1 74  1  0
  1 75  1  0
  1 76  1  0
  2 77  1  6
  4 78  1  0
  4 79  1  0
  4 80  1  0
  7 81  1  0
  8 82  1  0
  9 83  1  0
 13 84  1  0
 13 85  1  0
 14 86  1  0
 14 87  1  0
 14 88  1  0
 16 89  1  0
 16 90  1  0
 18 91  1  0
 18 92  1  0
 18 93  1  0
 19 94  1  0
 19 95  1  0
 19 96  1  0
 20 97  1  0
 20 98  1  0
 23 99  1  1
 24100  1  0
 27101  1  6
 28102  1  0
 30103  1  6
 31104  1  0
 32105  1  0
 32106  1  0
 32107  1  0
 33108  1  0
 33109  1  0
 33110  1  0
 37111  1  0
 37112  1  0
 38113  1  0
 38114  1  0
 45115  1  0
 45116  1  0
 45117  1  0
 46118  1  0
 46119  1  0
 46120  1  0
 47121  1  0
 47122  1  0
 47123  1  0
 48124  1  0
 48125  1  0
 48126  1  0
 50127  1  0
 50128  1  0
 51129  1  0
 51130  1  0
 53131  1  0
 53132  1  0
 53133  1  0
 55134  1  0
 55135  1  0
 56136  1  6
 57137  1  0
 57138  1  0
 59139  1  0
 59140  1  0
 60141  1  0
 60142  1  0
 63143  1  0
 63144  1  0
 64145  1  0
 64146  1  0
 65147  1  0
 65148  1  0
 69149  1  0
 70150  1  0
 72151  1  0
 41 42  3  0
M  END
$$$$
