 xtb: 6.7.1 (edcfbbe)
          08172522273D

151157  0     0  0            999 V2000
    2.2103    6.8360   -8.3065 C   0  0  0  0  0  0  0  0  0  0  0  0
    2.2365    5.3726   -7.8622 C   0  0  0  0  0  0  0  0  0  0  0  0
    3.3208    4.6499   -8.4267 O   0  0  0  0  0  0  0  0  0  0  0  0
    4.5725    4.9363   -7.8596 C   0  0  0  0  0  0  0  0  0  0  0  0
    0.9757    4.6613   -8.3123 C   0  0  0  0  0  0  0  0  0  0  0  0
    0.5289    4.9746   -9.5173 N   0  0  0  0  0  0  0  0  0  0  0  0
   -0.5643    4.3973   -9.9761 C   0  0  0  0  0  0  0  0  0  0  0  0
   -1.2975    3.4762   -9.2438 C   0  0  0  0  0  0  0  0  0  0  0  0
   -0.8424    3.1461   -7.9803 C   0  0  0  0  0  0  0  0  0  0  0  0
    0.3264    3.7291   -7.4920 C   0  0  0  0  0  0  0  0  0  0  0  0
    0.8100    3.3912   -6.1478 C   0  0  0  0  0  0  0  0  0  0  0  0
    0.1261    3.8283   -5.0338 N   0  0  0  0  0  0  0  0  0  0  0  0
   -0.9861    4.7402   -5.0263 C   0  0  0  0  0  0  0  0  0  0  0  0
   -0.5230    6.1952   -4.9586 C   0  0  0  0  0  0  0  0  0  0  0  0
    1.9019    2.6427   -5.7740 C   0  0  0  0  0  0  0  0  0  0  0  0
    2.8593    1.9630   -6.6989 C   0  0  0  0  0  0  0  0  0  0  0  0
    2.5242    0.4912   -7.0373 C   0  0  0  0  0  0  0  0  0  0  0  0
    3.3899    0.0546   -8.2215 C   0  0  0  0  0  0  0  0  0  0  0  0
    1.0492    0.3306   -7.4017 C   0  0  0  0  0  0  0  0  0  0  0  0
    2.8177   -0.4159   -5.8380 C   0  0  0  0  0  0  0  0  0  0  0  0
    4.2241   -0.4173   -5.5703 O   0  0  0  0  0  0  0  0  0  0  0  0
    4.6188   -1.0249   -4.4621 C   0  0  0  0  0  0  0  0  0  0  0  0
    6.1229   -0.9152   -4.2571 C   0  0  0  0  0  0  0  0  0  0  0  0
    6.6175   -2.0344   -3.4741 N   0  0  0  0  0  0  0  0  0  0  0  0
    7.8934   -1.7332   -2.9923 N   0  0  0  0  0  0  0  0  0  0  0  0
    8.1642   -1.0315   -1.8672 C   0  0  0  0  0  0  0  0  0  0  0  0
    6.9670   -0.7536   -0.9356 C   0  0  0  0  0  0  0  0  0  0  0  0
    7.0174   -1.6528    0.1948 N   0  0  0  0  0  0  0  0  0  0  0  0
    6.4208   -2.8521    0.1457 C   0  0  0  0  0  0  0  0  0  0  0  0
    6.4515   -3.5869    1.4881 C   0  0  0  0  0  0  0  0  0  0  0  0
    6.3755   -5.1103    1.3266 C   0  0  0  0  0  0  0  0  0  0  0  0
    6.1730   -5.7882    2.6783 C   0  0  0  0  0  0  0  0  0  0  0  0
    7.6704   -5.5893    0.6726 C   0  0  0  0  0  0  0  0  0  0  0  0
    5.3729   -3.0201    2.2981 N   0  0  0  0  0  0  0  0  0  0  0  0
    5.7327   -2.1320    3.2420 C   0  0  0  0  0  0  0  0  0  0  0  0
    4.6835   -1.5773    4.2197 C   0  0  0  0  0  0  0  0  0  0  0  0
    4.5497   -2.5618    5.3881 C   0  0  0  0  0  0  0  0  0  0  0  0
    3.6165   -1.9864    6.4545 C   0  0  0  0  0  0  0  0  0  0  0  0
    4.0762   -0.6865    6.8788 N   0  0  0  0  0  0  0  0  0  0  0  0
    4.4670   -0.4896    8.1614 C   0  0  0  0  0  0  0  0  0  0  0  0
    4.9222    0.8455    8.4688 C   0  0  0  0  0  0  0  0  0  0  0  0
    5.3254    1.8852    8.9219 C   0  0  0  0  0  0  0  0  0  0  0  0
    5.7538    3.2046    9.3792 C   0  0  0  0  0  0  0  0  0  0  0  0
    6.9033    3.0246   10.2707 N   0  0  0  0  0  0  0  0  0  0  0  0
    6.6739    2.0960   11.3590 C   0  0  0  0  0  0  0  0  0  0  0  0
    7.5038    4.2438   10.7638 C   0  0  0  0  0  0  0  0  0  0  0  0
    6.1731    4.0000    8.1310 C   0  0  0  0  0  0  0  0  0  0  0  0
    4.5304    3.8792   10.0377 C   0  0  0  0  0  0  0  0  0  0  0  0
    4.4195   -1.3568    9.0152 O   0  0  0  0  0  0  0  0  0  0  0  0
    4.1749    0.2885    5.8232 C   0  0  0  0  0  0  0  0  0  0  0  0
    5.1244   -0.2032    4.7289 C   0  0  0  0  0  0  0  0  0  0  0  0
    6.9019   -1.8286    3.4377 O   0  0  0  0  0  0  0  0  0  0  0  0
    4.0214   -3.2330    1.8240 C   0  0  0  0  0  0  0  0  0  0  0  0
    5.8593   -3.2818   -0.8464 O   0  0  0  0  0  0  0  0  0  0  0  0
    6.9785    0.7102   -0.4928 C   0  0  0  0  0  0  0  0  0  0  0  0
    5.5806    1.2417   -0.1645 C   0  0  0  0  0  0  0  0  0  0  0  0
    4.6881    1.3449   -1.4131 C   0  0  0  0  0  0  0  0  0  0  0  0
    3.3889    1.8525   -1.0264 N   0  0  0  0  0  0  0  0  0  0  0  0
    2.7927    0.9605   -0.0457 C   0  0  0  0  0  0  0  0  0  0  0  0
    3.7144    0.8853    1.1689 C   0  0  0  0  0  0  0  0  0  0  0  0
    4.9921    0.4079    0.8143 O   0  0  0  0  0  0  0  0  0  0  0  0
    9.2931   -0.6841   -1.5737 O   0  0  0  0  0  0  0  0  0  0  0  0
    8.8437   -1.7765   -4.0886 C   0  0  0  0  0  0  0  0  0  0  0  0
    8.4433   -0.7300   -5.1368 C   0  0  0  0  0  0  0  0  0  0  0  0
    6.9709   -0.8868   -5.5328 C   0  0  0  0  0  0  0  0  0  0  0  0
    3.8815   -1.5414   -3.6625 O   0  0  0  0  0  0  0  0  0  0  0  0
    1.9232    2.6505   -4.3456 C   0  0  0  0  0  0  0  0  0  0  0  0
    0.8058    3.4070   -3.9232 C   0  0  0  0  0  0  0  0  0  0  0  0
    0.5530    3.6215   -2.5734 C   0  0  0  0  0  0  0  0  0  0  0  0
    1.4197    3.0747   -1.6586 C   0  0  0  0  0  0  0  0  0  0  0  0
    2.5391    2.3141   -2.0497 C   0  0  0  0  0  0  0  0  0  0  0  0
    2.7922    2.1093   -3.3951 C   0  0  0  0  0  0  0  0  0  0  0  0
    3.4273   -1.4193    3.6392 F   0  0  0  0  0  0  0  0  0  0  0  0
    3.0845    7.3670   -7.9388 H   0  0  0  0  0  0  0  0  0  0  0  0
    2.1876    6.8751   -9.3912 H   0  0  0  0  0  0  0  0  0  0  0  0
    1.3188    7.3220   -7.9186 H   0  0  0  0  0  0  0  0  0  0  0  0
    2.3088    5.3156   -6.7621 H   0  0  0  0  0  0  0  0  0  0  0  0
    4.5491    4.8121   -6.7693 H   0  0  0  0  0  0  0  0  0  0  0  0
    5.2706    4.2206   -8.2905 H   0  0  0  0  0  0  0  0  0  0  0  0
    4.9108    5.9507   -8.0951 H   0  0  0  0  0  0  0  0  0  0  0  0
   -0.8675    4.6971  -10.9706 H   0  0  0  0  0  0  0  0  0  0  0  0
   -2.1944    3.0325   -9.6471 H   0  0  0  0  0  0  0  0  0  0  0  0
   -1.3782    2.4310   -7.3710 H   0  0  0  0  0  0  0  0  0  0  0  0
   -1.5776    4.5849   -5.9325 H   0  0  0  0  0  0  0  0  0  0  0  0
   -1.6133    4.5070   -4.1614 H   0  0  0  0  0  0  0  0  0  0  0  0
    0.0914    6.3536   -4.0754 H   0  0  0  0  0  0  0  0  0  0  0  0
    0.0650    6.4421   -5.8397 H   0  0  0  0  0  0  0  0  0  0  0  0
   -1.3815    6.8600   -4.9141 H   0  0  0  0  0  0  0  0  0  0  0  0
    2.8871    2.5220   -7.6357 H   0  0  0  0  0  0  0  0  0  0  0  0
    3.8596    1.9848   -6.2607 H   0  0  0  0  0  0  0  0  0  0  0  0
    4.4439    0.1709   -7.9846 H   0  0  0  0  0  0  0  0  0  0  0  0
    3.2053   -0.9897   -8.4642 H   0  0  0  0  0  0  0  0  0  0  0  0
    3.1608    0.6591   -9.0956 H   0  0  0  0  0  0  0  0  0  0  0  0
    0.4151    0.5816   -6.5549 H   0  0  0  0  0  0  0  0  0  0  0  0
    0.7999    0.9852   -8.2325 H   0  0  0  0  0  0  0  0  0  0  0  0
    0.8402   -0.6957   -7.6956 H   0  0  0  0  0  0  0  0  0  0  0  0
    2.2830   -0.0746   -4.9459 H   0  0  0  0  0  0  0  0  0  0  0  0
    2.5082   -1.4459   -6.0470 H   0  0  0  0  0  0  0  0  0  0  0  0
    6.2695    0.0491   -3.7244 H   0  0  0  0  0  0  0  0  0  0  0  0
    5.9920   -2.3960   -2.7556 H   0  0  0  0  0  0  0  0  0  0  0  0
    6.0295   -0.9776   -1.4492 H   0  0  0  0  0  0  0  0  0  0  0  0
    7.4515   -1.3327    1.0477 H   0  0  0  0  0  0  0  0  0  0  0  0
    7.3798   -3.3393    2.0130 H   0  0  0  0  0  0  0  0  0  0  0  0
    5.5490   -5.3659    0.6572 H   0  0  0  0  0  0  0  0  0  0  0  0
    5.2186   -5.5126    3.1191 H   0  0  0  0  0  0  0  0  0  0  0  0
    6.1954   -6.8688    2.5609 H   0  0  0  0  0  0  0  0  0  0  0  0
    6.9652   -5.4998    3.3661 H   0  0  0  0  0  0  0  0  0  0  0  0
    7.6359   -6.6647    0.5168 H   0  0  0  0  0  0  0  0  0  0  0  0
    7.8089   -5.1076   -0.2919 H   0  0  0  0  0  0  0  0  0  0  0  0
    8.5264   -5.3592    1.3037 H   0  0  0  0  0  0  0  0  0  0  0  0
    4.1561   -3.5140    5.0294 H   0  0  0  0  0  0  0  0  0  0  0  0
    5.5428   -2.7284    5.8066 H   0  0  0  0  0  0  0  0  0  0  0  0
    2.6044   -1.8923    6.0427 H   0  0  0  0  0  0  0  0  0  0  0  0
    3.5913   -2.6344    7.3329 H   0  0  0  0  0  0  0  0  0  0  0  0
    6.0487    2.5156   12.1622 H   0  0  0  0  0  0  0  0  0  0  0  0
    6.2021    1.1921   10.9806 H   0  0  0  0  0  0  0  0  0  0  0  0
    7.6400    1.8284   11.7877 H   0  0  0  0  0  0  0  0  0  0  0  0
    8.4311    3.9770   11.2713 H   0  0  0  0  0  0  0  0  0  0  0  0
    7.7520    4.9077    9.9403 H   0  0  0  0  0  0  0  0  0  0  0  0
    6.8699    4.7854   11.4836 H   0  0  0  0  0  0  0  0  0  0  0  0
    6.2658    5.0596    8.3539 H   0  0  0  0  0  0  0  0  0  0  0  0
    7.1232    3.6249    7.7601 H   0  0  0  0  0  0  0  0  0  0  0  0
    5.4213    3.8825    7.3534 H   0  0  0  0  0  0  0  0  0  0  0  0
    4.1780    3.2907   10.8812 H   0  0  0  0  0  0  0  0  0  0  0  0
    4.7923    4.8770   10.3820 H   0  0  0  0  0  0  0  0  0  0  0  0
    3.7224    3.9610    9.3149 H   0  0  0  0  0  0  0  0  0  0  0  0
    3.1775    0.4462    5.3922 H   0  0  0  0  0  0  0  0  0  0  0  0
    4.5348    1.2313    6.2384 H   0  0  0  0  0  0  0  0  0  0  0  0
    6.1401   -0.2940    5.1122 H   0  0  0  0  0  0  0  0  0  0  0  0
    5.1308    0.4978    3.8931 H   0  0  0  0  0  0  0  0  0  0  0  0
    3.3774   -3.6166    2.6155 H   0  0  0  0  0  0  0  0  0  0  0  0
    3.5942   -2.3074    1.4362 H   0  0  0  0  0  0  0  0  0  0  0  0
    4.0488   -3.9528    1.0116 H   0  0  0  0  0  0  0  0  0  0  0  0
    7.6188    0.8062    0.3851 H   0  0  0  0  0  0  0  0  0  0  0  0
    7.4089    1.3282   -1.2828 H   0  0  0  0  0  0  0  0  0  0  0  0
    5.6772    2.2605    0.2525 H   0  0  0  0  0  0  0  0  0  0  0  0
    5.1486    2.0453   -2.1134 H   0  0  0  0  0  0  0  0  0  0  0  0
    4.5941    0.3549   -1.8869 H   0  0  0  0  0  0  0  0  0  0  0  0
    1.8151    1.3336    0.2557 H   0  0  0  0  0  0  0  0  0  0  0  0
    2.6706   -0.0520   -0.4669 H   0  0  0  0  0  0  0  0  0  0  0  0
    3.8053    1.8880    1.6159 H   0  0  0  0  0  0  0  0  0  0  0  0
    3.3174    0.1910    1.9090 H   0  0  0  0  0  0  0  0  0  0  0  0
    9.8368   -1.5731   -3.6887 H   0  0  0  0  0  0  0  0  0  0  0  0
    8.8083   -2.7797   -4.5178 H   0  0  0  0  0  0  0  0  0  0  0  0
    8.6008    0.2654   -4.7139 H   0  0  0  0  0  0  0  0  0  0  0  0
    9.0807   -0.8303   -6.0152 H   0  0  0  0  0  0  0  0  0  0  0  0
    6.8276   -1.8293   -6.0620 H   0  0  0  0  0  0  0  0  0  0  0  0
    6.6613   -0.0679   -6.1816 H   0  0  0  0  0  0  0  0  0  0  0  0
   -0.2892    4.2107   -2.2427 H   0  0  0  0  0  0  0  0  0  0  0  0
    1.2572    3.2522   -0.6067 H   0  0  0  0  0  0  0  0  0  0  0  0
    3.6488    1.5433   -3.7237 H   0  0  0  0  0  0  0  0  0  0  0  0
  1  2  1  0  0  0  0
  2  3  1  0  0  0  0
  3  4  1  0  0  0  0
  2  5  1  0  0  0  0
  5  6  4  0  0  0  0
  6  7  4  0  0  0  0
  7  8  4  0  0  0  0
  8  9  4  0  0  0  0
  5 10  4  0  0  0  0
  9 10  4  0  0  0  0
 10 11  1  0  0  0  0
 11 12  1  0  0  0  0
 12 13  1  0  0  0  0
 13 14  1  0  0  0  0
 11 15  2  0  0  0  0
 15 16  1  0  0  0  0
 16 17  1  0  0  0  0
 17 18  1  0  0  0  0
 17 19  1  0  0  0  0
 17 20  1  0  0  0  0
 20 21  1  0  0  0  0
 21 22  1  0  0  0  0
 22 23  1  0  0  0  0
 23 24  1  0  0  0  0
 24 25  1  0  0  0  0
 25 26  4  0  0  0  0
 26 27  1  0  0  0  0
 27 28  1  0  0  0  0
 28 29  4  0  0  0  0
 29 30  1  0  0  0  0
 30 31  1  0  0  0  0
 31 32  1  0  0  0  0
 31 33  1  0  0  0  0
 30 34  1  0  0  0  0
 34 35  4  0  0  0  0
 35 36  1  0  0  0  0
 36 37  1  0  0  0  0
 37 38  1  0  0  0  0
 38 39  1  0  0  0  0
 39 40  4  0  0  0  0
 40 41  1  0  0  0  0
 41 42  3  0  0  0  0
 42 43  1  0  0  0  0
 43 44  1  0  0  0  0
 44 45  1  0  0  0  0
 44 46  1  0  0  0  0
 43 47  1  0  0  0  0
 43 48  1  0  0  0  0
 40 49  2  0  0  0  0
 39 50  1  0  0  0  0
 36 51  1  0  0  0  0
 50 51  1  0  0  0  0
 35 52  2  0  0  0  0
 34 53  1  0  0  0  0
 29 54  2  0  0  0  0
 27 55  1  0  0  0  0
 55 56  1  0  0  0  0
 56 57  1  0  0  0  0
 57 58  1  0  0  0  0
 58 59  1  0  0  0  0
 59 60  1  0  0  0  0
 56 61  1  0  0  0  0
 60 61  1  0  0  0  0
 26 62  2  0  0  0  0
 25 63  1  0  0  0  0
 63 64  1  0  0  0  0
 23 65  1  0  0  0  0
 64 65  1  0  0  0  0
 22 66  2  0  0  0  0
 15 67  4  0  0  0  0
 12 68  1  0  0  0  0
 67 68  4  0  0  0  0
 68 69  4  0  0  0  0
 69 70  2  0  0  0  0
 58 71  1  0  0  0  0
 70 71  4  0  0  0  0
 67 72  4  0  0  0  0
 71 72  4  0  0  0  0
 36 73  1  0  0  0  0
  1 74  1  0  0  0  0
  1 75  1  0  0  0  0
  1 76  1  0  0  0  0
  2 77  1  0  0  0  0
  4 78  1  0  0  0  0
  4 79  1  0  0  0  0
  4 80  1  0  0  0  0
  7 81  1  0  0  0  0
  8 82  1  0  0  0  0
  9 83  1  0  0  0  0
 13 84  1  0  0  0  0
 13 85  1  0  0  0  0
 14 86  1  0  0  0  0
 14 87  1  0  0  0  0
 14 88  1  0  0  0  0
 16 89  1  0  0  0  0
 16 90  1  0  0  0  0
 18 91  1  0  0  0  0
 18 92  1  0  0  0  0
 18 93  1  0  0  0  0
 19 94  1  0  0  0  0
 19 95  1  0  0  0  0
 19 96  1  0  0  0  0
 20 97  1  0  0  0  0
 20 98  1  0  0  0  0
 23 99  1  0  0  0  0
 24100  1  0  0  0  0
 27101  1  0  0  0  0
 28102  1  0  0  0  0
 30103  1  0  0  0  0
 31104  1  0  0  0  0
 32105  1  0  0  0  0
 32106  1  0  0  0  0
 32107  1  0  0  0  0
 33108  1  0  0  0  0
 33109  1  0  0  0  0
 33110  1  0  0  0  0
 37111  1  0  0  0  0
 37112  1  0  0  0  0
 38113  1  0  0  0  0
 38114  1  0  0  0  0
 45115  1  0  0  0  0
 45116  1  0  0  0  0
 45117  1  0  0  0  0
 46118  1  0  0  0  0
 46119  1  0  0  0  0
 46120  1  0  0  0  0
 47121  1  0  0  0  0
 47122  1  0  0  0  0
 47123  1  0  0  0  0
 48124  1  0  0  0  0
 48125  1  0  0  0  0
 48126  1  0  0  0  0
 50127  1  0  0  0  0
 50128  1  0  0  0  0
 51129  1  0  0  0  0
 51130  1  0  0  0  0
 53131  1  0  0  0  0
 53132  1  0  0  0  0
 53133  1  0  0  0  0
 55134  1  0  0  0  0
 55135  1  0  0  0  0
 56136  1  0  0  0  0
 57137  1  0  0  0  0
 57138  1  0  0  0  0
 59139  1  0  0  0  0
 59140  1  0  0  0  0
 60141  1  0  0  0  0
 60142  1  0  0  0  0
 63143  1  0  0  0  0
 63144  1  0  0  0  0
 64145  1  0  0  0  0
 64146  1  0  0  0  0
 65147  1  0  0  0  0
 65148  1  0  0  0  0
 69149  1  0  0  0  0
 70150  1  0  0  0  0
 72151  1  0  0  0  0
M  END
$$$$
