mol_bioactive_13
     RDKit          3D

151157  0  0  0  0  0  0  0  0999 V2000
   -0.1139   15.5072  -12.8989 C   0  0  0  0  0  0  0  0  0  0  0  0
   -0.2194   14.8126  -11.5365 C   0  0  2  0  0  0  0  0  0  0  0  0
   -0.4641   15.7926  -10.5171 O   0  0  0  0  0  0  0  0  0  0  0  0
   -1.8429   16.1025  -10.3710 C   0  0  0  0  0  0  0  0  0  0  0  0
    1.0506   14.0347  -11.1956 C   0  0  0  0  0  0  0  0  0  0  0  0
    2.2253   14.5269  -11.6889 N   0  0  0  0  0  0  0  0  0  0  0  0
    3.3605   13.8381  -11.4486 C   0  0  0  0  0  0  0  0  0  0  0  0
    3.3991   12.6505  -10.7466 C   0  0  0  0  0  0  0  0  0  0  0  0
    2.2050   12.1505  -10.2431 C   0  0  0  0  0  0  0  0  0  0  0  0
    1.0072   12.8520  -10.4353 C   0  0  0  0  0  0  0  0  0  0  0  0
   -0.2386   12.2857   -9.9090 C   0  0  0  0  0  0  0  0  0  0  0  0
   -0.9352   11.2909  -10.5766 N   0  0  0  0  0  0  0  0  0  0  0  0
   -0.5095   10.6211  -11.8016 C   0  0  0  0  0  0  0  0  0  0  0  0
    0.1108    9.2616  -11.5313 C   0  0  0  0  0  0  0  0  0  0  0  0
   -0.9842   12.6354   -8.7818 C   0  0  0  0  0  0  0  0  0  0  0  0
   -0.6662   13.6624   -7.7139 C   0  0  0  0  0  0  0  0  0  0  0  0
    0.4022   13.3230   -6.6314 C   0  0  0  0  0  0  0  0  0  0  0  0
    0.1350   14.2362   -5.4102 C   0  0  0  0  0  0  0  0  0  0  0  0
    1.8201   13.6603   -7.1307 C   0  0  0  0  0  0  0  0  0  0  0  0
    0.3924   11.8415   -6.1903 C   0  0  0  0  0  0  0  0  0  0  0  0
   -0.7246   11.5415   -5.3417 O   0  0  0  0  0  0  0  0  0  0  0  0
   -0.8262   10.2146   -5.0285 C   0  0  0  0  0  0  0  0  0  0  0  0
   -1.8468   10.0121   -3.9028 C   0  0  1  0  0  0  0  0  0  0  0  0
   -2.4514    8.6754   -4.0247 N   0  0  0  0  0  0  0  0  0  0  0  0
   -3.3669    8.4184   -2.9805 N   0  0  0  0  0  0  0  0  0  0  0  0
   -4.6943    8.0221   -3.1723 C   0  0  0  0  0  0  0  0  0  0  0  0
   -5.3572    8.4265   -4.5084 C   0  0  1  0  0  0  0  0  0  0  0  0
   -6.4734    7.5321   -4.7947 N   0  0  0  0  0  0  0  0  0  0  0  0
   -6.2217    6.3034   -5.3765 C   0  0  0  0  0  0  0  0  0  0  0  0
   -7.4431    5.3571   -5.4291 C   0  0  2  0  0  0  0  0  0  0  0  0
   -7.0238    3.8694   -5.2883 C   0  0  0  0  0  0  0  0  0  0  0  0
   -8.2188    2.9299   -5.4804 C   0  0  0  0  0  0  0  0  0  0  0  0
   -6.4041    3.6105   -3.9071 C   0  0  0  0  0  0  0  0  0  0  0  0
   -8.1897    5.6548   -6.6800 N   0  0  0  0  0  0  0  0  0  0  0  0
   -9.2395    6.5789   -6.5805 C   0  0  0  0  0  0  0  0  0  0  0  0
  -10.0744    6.8918   -7.8456 C   0  0  0  0  0  0  0  0  0  0  0  0
  -10.9963    8.0996   -7.5869 C   0  0  0  0  0  0  0  0  0  0  0  0
  -11.9186    8.3405   -8.7761 C   0  0  0  0  0  0  0  0  0  0  0  0
  -12.6498    7.1177   -9.0848 N   0  0  0  0  0  0  0  0  0  0  0  0
  -13.9707    6.8789   -8.7206 C   0  0  0  0  0  0  0  0  0  0  0  0
  -14.7338    7.9550   -8.1281 C   0  0  0  0  0  0  0  0  0  0  0  0
  -15.3784    8.8175   -7.5918 C   0  0  0  0  0  0  0  0  0  0  0  0
  -16.1776    9.8514   -6.8926 C   0  0  0  0  0  0  0  0  0  0  0  0
  -16.4525    9.4870   -5.4755 N   0  0  0  0  0  0  0  0  0  0  0  0
  -15.2554    9.3824   -4.6340 C   0  0  0  0  0  0  0  0  0  0  0  0
  -17.2634    8.2750   -5.3135 C   0  0  0  0  0  0  0  0  0  0  0  0
  -15.4111   11.1938   -6.9666 C   0  0  0  0  0  0  0  0  0  0  0  0
  -17.5010   10.0582   -7.6676 C   0  0  0  0  0  0  0  0  0  0  0  0
  -14.5252    5.7918   -8.8471 O   0  0  0  0  0  0  0  0  0  0  0  0
  -11.8075    5.9835   -9.4296 C   0  0  0  0  0  0  0  0  0  0  0  0
  -10.8961    5.6540   -8.2521 C   0  0  0  0  0  0  0  0  0  0  0  0
   -9.5342    7.0849   -5.4909 O   0  0  0  0  0  0  0  0  0  0  0  0
   -7.4784    5.4500   -7.9435 C   0  0  0  0  0  0  0  0  0  0  0  0
   -5.1435    6.0353   -5.9036 O   0  0  0  0  0  0  0  0  0  0  0  0
   -5.8376    9.8783   -4.3815 C   0  0  0  0  0  0  0  0  0  0  0  0
   -5.4173   10.7519   -5.5666 C   0  0  1  0  0  0  0  0  0  0  0  0
   -6.0259   10.2780   -6.9094 C   0  0  0  0  0  0  0  0  0  0  0  0
   -5.8385   11.3083   -7.9492 N   0  0  0  0  0  0  0  0  0  0  0  0
   -6.3010   12.6563   -7.5459 C   0  0  0  0  0  0  0  0  0  0  0  0
   -6.7266   12.7023   -6.0703 C   0  0  0  0  0  0  0  0  0  0  0  0
   -5.7391   12.1180   -5.2139 O   0  0  0  0  0  0  0  0  0  0  0  0
   -5.3678    7.4962   -2.2787 O   0  0  0  0  0  0  0  0  0  0  0  0
   -2.7443    8.3608   -1.6569 C   0  0  0  0  0  0  0  0  0  0  0  0
   -2.0388    9.6922   -1.3816 C   0  0  0  0  0  0  0  0  0  0  0  0
   -1.1253   10.1015   -2.5458 C   0  0  0  0  0  0  0  0  0  0  0  0
   -0.1594    9.3232   -5.5422 O   0  0  0  0  0  0  0  0  0  0  0  0
   -2.2423   11.9371   -8.8889 C   0  0  0  0  0  0  0  0  0  0  0  0
   -2.1700   11.0914   -9.9917 C   0  0  0  0  0  0  0  0  0  0  0  0
   -3.2346   10.2545  -10.3604 C   0  0  0  0  0  0  0  0  0  0  0  0
   -4.4278   10.3460   -9.6372 C   0  0  0  0  0  0  0  0  0  0  0  0
   -4.5775   11.2295   -8.5666 C   0  0  0  0  0  0  0  0  0  0  0  0
   -3.4587   11.9831   -8.1632 C   0  0  0  0  0  0  0  0  0  0  0  0
   -9.2680    7.2372   -8.9004 F   0  0  0  0  0  0  0  0  0  0  0  0
    0.6262   16.3153  -12.8779 H   0  0  0  0  0  0  0  0  0  0  0  0
    0.1608   14.7992  -13.6879 H   0  0  0  0  0  0  0  0  0  0  0  0
   -1.0674   15.9688  -13.1757 H   0  0  0  0  0  0  0  0  0  0  0  0
   -1.0601   14.1118  -11.5988 H   0  0  0  0  0  0  0  0  0  0  0  0
   -1.9432   16.8395   -9.5695 H   0  0  0  0  0  0  0  0  0  0  0  0
   -2.2488   16.5368  -11.2889 H   0  0  0  0  0  0  0  0  0  0  0  0
   -2.4127   15.2117  -10.0917 H   0  0  0  0  0  0  0  0  0  0  0  0
    4.2655   14.2808  -11.8541 H   0  0  0  0  0  0  0  0  0  0  0  0
    4.3369   12.1306  -10.5854 H   0  0  0  0  0  0  0  0  0  0  0  0
    2.2097   11.2212   -9.6766 H   0  0  0  0  0  0  0  0  0  0  0  0
   -1.3868   10.5232  -12.4498 H   0  0  0  0  0  0  0  0  0  0  0  0
    0.1935   11.2653  -12.3361 H   0  0  0  0  0  0  0  0  0  0  0  0
    1.0162    9.3518  -10.9238 H   0  0  0  0  0  0  0  0  0  0  0  0
   -0.5847    8.6063  -10.9955 H   0  0  0  0  0  0  0  0  0  0  0  0
    0.3776    8.7748  -12.4740 H   0  0  0  0  0  0  0  0  0  0  0  0
   -0.3899   14.6008   -8.2073 H   0  0  0  0  0  0  0  0  0  0  0  0
   -1.6081   13.8958   -7.2010 H   0  0  0  0  0  0  0  0  0  0  0  0
    0.8520   14.0404   -4.6050 H   0  0  0  0  0  0  0  0  0  0  0  0
    0.2244   15.2938   -5.6855 H   0  0  0  0  0  0  0  0  0  0  0  0
   -0.8705   14.0864   -5.0017 H   0  0  0  0  0  0  0  0  0  0  0  0
    2.5313   13.7078   -6.2965 H   0  0  0  0  0  0  0  0  0  0  0  0
    2.1975   12.8924   -7.8022 H   0  0  0  0  0  0  0  0  0  0  0  0
    1.8546   14.6280   -7.6429 H   0  0  0  0  0  0  0  0  0  0  0  0
    0.4067   11.1744   -7.0609 H   0  0  0  0  0  0  0  0  0  0  0  0
    1.3005   11.6355   -5.6058 H   0  0  0  0  0  0  0  0  0  0  0  0
   -2.6270   10.7774   -3.9873 H   0  0  0  0  0  0  0  0  0  0  0  0
   -2.7736    8.4615   -4.9675 H   0  0  0  0  0  0  0  0  0  0  0  0
   -4.6430    8.3166   -5.3255 H   0  0  0  0  0  0  0  0  0  0  0  0
   -7.2694    7.5689   -4.1617 H   0  0  0  0  0  0  0  0  0  0  0  0
   -8.0833    5.5858   -4.5672 H   0  0  0  0  0  0  0  0  0  0  0  0
   -6.2648    3.6154   -6.0377 H   0  0  0  0  0  0  0  0  0  0  0  0
   -9.0072    3.1365   -4.7478 H   0  0  0  0  0  0  0  0  0  0  0  0
   -8.6518    3.0297   -6.4820 H   0  0  0  0  0  0  0  0  0  0  0  0
   -7.9134    1.8854   -5.3614 H   0  0  0  0  0  0  0  0  0  0  0  0
   -7.1135    3.8436   -3.1045 H   0  0  0  0  0  0  0  0  0  0  0  0
   -6.1129    2.5592   -3.8051 H   0  0  0  0  0  0  0  0  0  0  0  0
   -5.5057    4.2155   -3.7520 H   0  0  0  0  0  0  0  0  0  0  0  0
  -11.6048    7.9320   -6.6889 H   0  0  0  0  0  0  0  0  0  0  0  0
  -10.3923    8.9982   -7.4129 H   0  0  0  0  0  0  0  0  0  0  0  0
  -12.5948    9.1734   -8.5680 H   0  0  0  0  0  0  0  0  0  0  0  0
  -11.3376    8.6139   -9.6659 H   0  0  0  0  0  0  0  0  0  0  0  0
  -15.5368    9.1649   -3.5973 H   0  0  0  0  0  0  0  0  0  0  0  0
  -14.5744    8.5925   -4.9676 H   0  0  0  0  0  0  0  0  0  0  0  0
  -14.7056   10.3277   -4.5901 H   0  0  0  0  0  0  0  0  0  0  0  0
  -17.4720    8.0960   -4.2512 H   0  0  0  0  0  0  0  0  0  0  0  0
  -18.2447    8.3745   -5.7845 H   0  0  0  0  0  0  0  0  0  0  0  0
  -16.7693    7.3815   -5.7089 H   0  0  0  0  0  0  0  0  0  0  0  0
  -15.9056   11.9662   -6.3655 H   0  0  0  0  0  0  0  0  0  0  0  0
  -14.3735   11.1020   -6.6236 H   0  0  0  0  0  0  0  0  0  0  0  0
  -15.3586   11.5663   -7.9983 H   0  0  0  0  0  0  0  0  0  0  0  0
  -18.1619   10.7582   -7.1430 H   0  0  0  0  0  0  0  0  0  0  0  0
  -17.3145   10.4703   -8.6683 H   0  0  0  0  0  0  0  0  0  0  0  0
  -18.0459    9.1206   -7.8238 H   0  0  0  0  0  0  0  0  0  0  0  0
  -12.4101    5.1089   -9.6924 H   0  0  0  0  0  0  0  0  0  0  0  0
  -11.2210    6.2539  -10.3141 H   0  0  0  0  0  0  0  0  0  0  0  0
  -10.2513    4.8181   -8.5362 H   0  0  0  0  0  0  0  0  0  0  0  0
  -11.4986    5.3150   -7.3990 H   0  0  0  0  0  0  0  0  0  0  0  0
   -6.8372    4.5676   -7.8895 H   0  0  0  0  0  0  0  0  0  0  0  0
   -8.1713    5.2933   -8.7701 H   0  0  0  0  0  0  0  0  0  0  0  0
   -6.8725    6.3369   -8.1584 H   0  0  0  0  0  0  0  0  0  0  0  0
   -6.9285    9.9288   -4.2649 H   0  0  0  0  0  0  0  0  0  0  0  0
   -5.4370   10.3436   -3.4701 H   0  0  0  0  0  0  0  0  0  0  0  0
   -4.3256   10.7249   -5.6448 H   0  0  0  0  0  0  0  0  0  0  0  0
   -5.6141    9.3109   -7.2187 H   0  0  0  0  0  0  0  0  0  0  0  0
   -7.1050   10.1194   -6.7921 H   0  0  0  0  0  0  0  0  0  0  0  0
   -5.5449   13.4298   -7.7231 H   0  0  0  0  0  0  0  0  0  0  0  0
   -7.1598   12.9271   -8.1715 H   0  0  0  0  0  0  0  0  0  0  0  0
   -6.8694   13.7419   -5.7593 H   0  0  0  0  0  0  0  0  0  0  0  0
   -7.6813   12.1869   -5.9126 H   0  0  0  0  0  0  0  0  0  0  0  0
   -3.4920    8.1659   -0.8811 H   0  0  0  0  0  0  0  0  0  0  0  0
   -2.0300    7.5282   -1.6536 H   0  0  0  0  0  0  0  0  0  0  0  0
   -2.7959   10.4745   -1.2402 H   0  0  0  0  0  0  0  0  0  0  0  0
   -1.4621    9.6288   -0.4530 H   0  0  0  0  0  0  0  0  0  0  0  0
   -0.2399    9.4506   -2.5472 H   0  0  0  0  0  0  0  0  0  0  0  0
   -0.7570   11.1220   -2.3835 H   0  0  0  0  0  0  0  0  0  0  0  0
   -3.1665    9.5794  -11.2079 H   0  0  0  0  0  0  0  0  0  0  0  0
   -5.2754    9.7376   -9.9462 H   0  0  0  0  0  0  0  0  0  0  0  0
   -3.5261   12.6388   -7.3020 H   0  0  0  0  0  0  0  0  0  0  0  0
  1  2  1  0
  2  3  1  0
  2  5  1  0
  3  4  1  0
  5  6  2  0
  5 10  1  0
  6  7  1  0
  7  8  2  0
  8  9  1  0
  9 10  2  0
 10 11  1  0
 11 12  1  0
 11 15  2  0
 12 13  1  0
 12 68  1  0
 13 14  1  0
 15 16  1  0
 15 67  1  0
 16 17  1  0
 17 18  1  0
 17 19  1  0
 17 20  1  0
 20 21  1  0
 21 22  1  0
 22 23  1  0
 22 66  2  0
 23 24  1  0
 23 65  1  0
 24 25  1  0
 25 26  1  0
 25 63  1  0
 26 27  1  0
 26 62  2  0
 27 28  1  0
 27 55  1  0
 28 29  1  0
 29 30  1  0
 29 54  2  0
 30 31  1  0
 30 34  1  0
 31 32  1  0
 31 33  1  0
 34 35  1  0
 34 53  1  0
 35 36  1  0
 35 52  2  0
 36 37  1  0
 36 51  1  0
 36 73  1  0
 37 38  1  0
 38 39  1  0
 39 40  1  0
 39 50  1  0
 40 41  1  0
 40 49  2  0
 42 43  1  0
 43 44  1  0
 43 47  1  0
 43 48  1  0
 44 45  1  0
 44 46  1  0
 50 51  1  0
 55 56  1  0
 56 57  1  0
 56 61  1  0
 57 58  1  0
 58 59  1  0
 58 71  1  0
 59 60  1  0
 60 61  1  0
 63 64  1  0
 64 65  1  0
 67 68  2  0
 67 72  1  0
 68 69  1  0
 69 70  2  0
 70 71  1  0
 71 72  2  0
 41 42  3  0
  1 74  1  0
  1 75  1  0
  1 76  1  0
  2 77  1  6
  4 78  1  0
  4 79  1  0
  4 80  1  0
  7 81  1  0
  8 82  1  0
  9 83  1  0
 13 84  1  0
 13 85  1  0
 14 86  1  0
 14 87  1  0
 14 88  1  0
 16 89  1  0
 16 90  1  0
 18 91  1  0
 18 92  1  0
 18 93  1  0
 19 94  1  0
 19 95  1  0
 19 96  1  0
 20 97  1  0
 20 98  1  0
 23 99  1  1
 24100  1  0
 27101  1  6
 28102  1  0
 30103  1  1
 31104  1  0
 32105  1  0
 32106  1  0
 32107  1  0
 33108  1  0
 33109  1  0
 33110  1  0
 37111  1  0
 37112  1  0
 38113  1  0
 38114  1  0
 45115  1  0
 45116  1  0
 45117  1  0
 46118  1  0
 46119  1  0
 46120  1  0
 47121  1  0
 47122  1  0
 47123  1  0
 48124  1  0
 48125  1  0
 48126  1  0
 50127  1  0
 50128  1  0
 51129  1  0
 51130  1  0
 53131  1  0
 53132  1  0
 53133  1  0
 55134  1  0
 55135  1  0
 56136  1  6
 57137  1  0
 57138  1  0
 59139  1  0
 59140  1  0
 60141  1  0
 60142  1  0
 63143  1  0
 63144  1  0
 64145  1  0
 64146  1  0
 65147  1  0
 65148  1  0
 69149  1  0
 70150  1  0
 72151  1  0
M  END
$$$$
