 xtb: 6.7.1 (edcfbbe)
          08172523533D

151157  0     0  0            999 V2000
    3.4030    7.3718   -7.9488 C   0  0  0  0  0  0  0  0  0  0  0  0
    3.1856    5.9432   -7.4544 C   0  0  0  0  0  0  0  0  0  0  0  0
    4.3609    5.1525   -7.5599 O   0  0  0  0  0  0  0  0  0  0  0  0
    5.2741    5.3212   -6.5081 C   0  0  0  0  0  0  0  0  0  0  0  0
    2.1199    5.2341   -8.2679 C   0  0  0  0  0  0  0  0  0  0  0  0
    1.8809    5.6955   -9.4830 N   0  0  0  0  0  0  0  0  0  0  0  0
    0.9603    5.1123  -10.2279 C   0  0  0  0  0  0  0  0  0  0  0  0
    0.2025    4.0379   -9.7913 C   0  0  0  0  0  0  0  0  0  0  0  0
    0.4416    3.5510   -8.5177 C   0  0  0  0  0  0  0  0  0  0  0  0
    1.4292    4.1372   -7.7323 C   0  0  0  0  0  0  0  0  0  0  0  0
    1.7032    3.6565   -6.3699 C   0  0  0  0  0  0  0  0  0  0  0  0
    0.9282    4.0934   -5.3186 N   0  0  0  0  0  0  0  0  0  0  0  0
   -0.2061    4.9729   -5.4068 C   0  0  0  0  0  0  0  0  0  0  0  0
   -1.5275    4.2048   -5.4048 C   0  0  0  0  0  0  0  0  0  0  0  0
    2.7002    2.8261   -5.9168 C   0  0  0  0  0  0  0  0  0  0  0  0
    3.7447    2.1678   -6.7601 C   0  0  0  0  0  0  0  0  0  0  0  0
    3.4290    0.7241   -7.2169 C   0  0  0  0  0  0  0  0  0  0  0  0
    4.4143    0.3330   -8.3211 C   0  0  0  0  0  0  0  0  0  0  0  0
    2.0021    0.6106   -7.7490 C   0  0  0  0  0  0  0  0  0  0  0  0
    3.5797   -0.2507   -6.0448 C   0  0  0  0  0  0  0  0  0  0  0  0
    4.9462   -0.2749   -5.6200 O   0  0  0  0  0  0  0  0  0  0  0  0
    5.2122   -0.9311   -4.5018 C   0  0  0  0  0  0  0  0  0  0  0  0
    6.6796   -0.8252   -4.1129 C   0  0  0  0  0  0  0  0  0  0  0  0
    7.0974   -1.9946   -3.3583 N   0  0  0  0  0  0  0  0  0  0  0  0
    8.2965   -1.7118   -2.6992 N   0  0  0  0  0  0  0  0  0  0  0  0
    8.4077   -1.0899   -1.5024 C   0  0  0  0  0  0  0  0  0  0  0  0
    7.0980   -0.9132   -0.7077 C   0  0  0  0  0  0  0  0  0  0  0  0
    7.0199   -1.9240    0.3219 N   0  0  0  0  0  0  0  0  0  0  0  0
    6.4227   -3.1014    0.0895 C   0  0  0  0  0  0  0  0  0  0  0  0
    6.2882   -3.9513    1.3555 C   0  0  0  0  0  0  0  0  0  0  0  0
    6.1556   -5.4492    1.0586 C   0  0  0  0  0  0  0  0  0  0  0  0
    5.8142   -6.2220    2.3292 C   0  0  0  0  0  0  0  0  0  0  0  0
    7.4752   -5.9424    0.4672 C   0  0  0  0  0  0  0  0  0  0  0  0
    5.1650   -3.3880    2.1077 N   0  0  0  0  0  0  0  0  0  0  0  0
    5.4798   -2.5372    3.1000 C   0  0  0  0  0  0  0  0  0  0  0  0
    4.3915   -1.9919    4.0365 C   0  0  0  0  0  0  0  0  0  0  0  0
    4.2445   -2.9760    5.2046 C   0  0  0  0  0  0  0  0  0  0  0  0
    3.2893   -2.4102    6.2574 C   0  0  0  0  0  0  0  0  0  0  0  0
    3.7246   -1.1016    6.6801 N   0  0  0  0  0  0  0  0  0  0  0  0
    4.1476   -0.9046    7.9539 C   0  0  0  0  0  0  0  0  0  0  0  0
    4.6029    0.4359    8.2328 C   0  0  0  0  0  0  0  0  0  0  0  0
    5.0076    1.5131    8.5842 C   0  0  0  0  0  0  0  0  0  0  0  0
    5.4570    2.8503    8.9611 C   0  0  0  0  0  0  0  0  0  0  0  0
    5.7298    3.5851    7.7189 N   0  0  0  0  0  0  0  0  0  0  0  0
    6.7365    2.9675    6.8792 C   0  0  0  0  0  0  0  0  0  0  0  0
    5.9997    4.9973    7.8746 C   0  0  0  0  0  0  0  0  0  0  0  0
    6.6683    2.7070    9.9037 C   0  0  0  0  0  0  0  0  0  0  0  0
    4.2866    3.4965    9.7204 C   0  0  0  0  0  0  0  0  0  0  0  0
    4.1242   -1.7720    8.8079 O   0  0  0  0  0  0  0  0  0  0  0  0
    3.8096   -0.1318    5.6170 C   0  0  0  0  0  0  0  0  0  0  0  0
    4.7949   -0.6066    4.5474 C   0  0  0  0  0  0  0  0  0  0  0  0
    6.6417   -2.2633    3.3753 O   0  0  0  0  0  0  0  0  0  0  0  0
    3.8478   -3.5315    1.5227 C   0  0  0  0  0  0  0  0  0  0  0  0
    5.9763   -3.4285   -0.9959 O   0  0  0  0  0  0  0  0  0  0  0  0
    7.0250    0.4977   -0.1210 C   0  0  0  0  0  0  0  0  0  0  0  0
    5.5902    1.0083    0.0363 C   0  0  0  0  0  0  0  0  0  0  0  0
    4.8824    1.2031   -1.3153 C   0  0  0  0  0  0  0  0  0  0  0  0
    3.5473    1.7071   -1.0750 N   0  0  0  0  0  0  0  0  0  0  0  0
    2.8125    0.7572   -0.2566 C   0  0  0  0  0  0  0  0  0  0  0  0
    3.5540    0.5799    1.0664 C   0  0  0  0  0  0  0  0  0  0  0  0
    4.8686    0.1132    0.8607 O   0  0  0  0  0  0  0  0  0  0  0  0
    9.4815   -0.7399   -1.0491 O   0  0  0  0  0  0  0  0  0  0  0  0
    9.3757   -1.6572   -3.6686 C   0  0  0  0  0  0  0  0  0  0  0  0
    9.0833   -0.5404   -4.6792 C   0  0  0  0  0  0  0  0  0  0  0  0
    7.6764   -0.6916   -5.2683 C   0  0  0  0  0  0  0  0  0  0  0  0
    4.3894   -1.4842   -3.8183 O   0  0  0  0  0  0  0  0  0  0  0  0
    2.5461    2.7548   -4.4973 C   0  0  0  0  0  0  0  0  0  0  0  0
    1.4215    3.5460   -4.1661 C   0  0  0  0  0  0  0  0  0  0  0  0
    1.0025    3.6888   -2.8487 C   0  0  0  0  0  0  0  0  0  0  0  0
    1.7202    3.0456   -1.8698 C   0  0  0  0  0  0  0  0  0  0  0  0
    2.8519    2.2620   -2.1672 C   0  0  0  0  0  0  0  0  0  0  0  0
    3.2665    2.1227   -3.4807 C   0  0  0  0  0  0  0  0  0  0  0  0
    3.1487   -1.8608    3.4238 F   0  0  0  0  0  0  0  0  0  0  0  0
    4.1521    7.8745   -7.3423 H   0  0  0  0  0  0  0  0  0  0  0  0
    3.7320    7.3453   -8.9827 H   0  0  0  0  0  0  0  0  0  0  0  0
    2.4709    7.9261   -7.8900 H   0  0  0  0  0  0  0  0  0  0  0  0
    2.8641    5.9599   -6.3984 H   0  0  0  0  0  0  0  0  0  0  0  0
    4.8123    5.0802   -5.5418 H   0  0  0  0  0  0  0  0  0  0  0  0
    6.0898    4.6273   -6.7021 H   0  0  0  0  0  0  0  0  0  0  0  0
    5.6738    6.3402   -6.4674 H   0  0  0  0  0  0  0  0  0  0  0  0
    0.8204    5.5385  -11.2126 H   0  0  0  0  0  0  0  0  0  0  0  0
   -0.5535    3.5983  -10.4232 H   0  0  0  0  0  0  0  0  0  0  0  0
   -0.1310    2.7201   -8.1307 H   0  0  0  0  0  0  0  0  0  0  0  0
   -0.1782    5.6595   -4.5545 H   0  0  0  0  0  0  0  0  0  0  0  0
   -0.1183    5.5615   -6.3249 H   0  0  0  0  0  0  0  0  0  0  0  0
   -1.6008    3.5854   -4.5143 H   0  0  0  0  0  0  0  0  0  0  0  0
   -2.3624    4.9000   -5.4197 H   0  0  0  0  0  0  0  0  0  0  0  0
   -1.5946    3.5625   -6.2791 H   0  0  0  0  0  0  0  0  0  0  0  0
    3.8957    2.7824   -7.6492 H   0  0  0  0  0  0  0  0  0  0  0  0
    4.6858    2.1425   -6.2068 H   0  0  0  0  0  0  0  0  0  0  0  0
    5.4370    0.4149   -7.9638 H   0  0  0  0  0  0  0  0  0  0  0  0
    4.2421   -0.6932   -8.6388 H   0  0  0  0  0  0  0  0  0  0  0  0
    4.2931    0.9863   -9.1817 H   0  0  0  0  0  0  0  0  0  0  0  0
    1.2827    0.8496   -6.9695 H   0  0  0  0  0  0  0  0  0  0  0  0
    1.8646    1.2979   -8.5793 H   0  0  0  0  0  0  0  0  0  0  0  0
    1.8061   -0.4001   -8.1008 H   0  0  0  0  0  0  0  0  0  0  0  0
    2.9466    0.0453   -5.2024 H   0  0  0  0  0  0  0  0  0  0  0  0
    3.2954   -1.2655   -6.3444 H   0  0  0  0  0  0  0  0  0  0  0  0
    6.7427    0.0977   -3.4967 H   0  0  0  0  0  0  0  0  0  0  0  0
    6.3941   -2.4137   -2.7506 H   0  0  0  0  0  0  0  0  0  0  0  0
    6.2377   -1.0879   -1.3572 H   0  0  0  0  0  0  0  0  0  0  0  0
    7.3534   -1.6998    1.2487 H   0  0  0  0  0  0  0  0  0  0  0  0
    7.1730   -3.8000    1.9826 H   0  0  0  0  0  0  0  0  0  0  0  0
    5.3760   -5.6080    0.3081 H   0  0  0  0  0  0  0  0  0  0  0  0
    4.8482   -5.9217    2.7265 H   0  0  0  0  0  0  0  0  0  0  0  0
    5.7810   -7.2885    2.1203 H   0  0  0  0  0  0  0  0  0  0  0  0
    6.5697   -6.0439    3.0917 H   0  0  0  0  0  0  0  0  0  0  0  0
    7.4053   -7.0006    0.2283 H   0  0  0  0  0  0  0  0  0  0  0  0
    7.7071   -5.3996   -0.4454 H   0  0  0  0  0  0  0  0  0  0  0  0
    8.2898   -5.8011    1.1746 H   0  0  0  0  0  0  0  0  0  0  0  0
    3.8653   -3.9308    4.8367 H   0  0  0  0  0  0  0  0  0  0  0  0
    5.2318   -3.1349    5.6397 H   0  0  0  0  0  0  0  0  0  0  0  0
    2.2809   -2.3328    5.8341 H   0  0  0  0  0  0  0  0  0  0  0  0
    3.2648   -3.0557    7.1376 H   0  0  0  0  0  0  0  0  0  0  0  0
    6.5750    1.8923    6.8390 H   0  0  0  0  0  0  0  0  0  0  0  0
    6.6372    3.3712    5.8706 H   0  0  0  0  0  0  0  0  0  0  0  0
    7.7638    3.1589    7.2233 H   0  0  0  0  0  0  0  0  0  0  0  0
    5.1834    5.4844    8.4007 H   0  0  0  0  0  0  0  0  0  0  0  0
    6.9434    5.2084    8.4008 H   0  0  0  0  0  0  0  0  0  0  0  0
    6.0672    5.4355    6.8786 H   0  0  0  0  0  0  0  0  0  0  0  0
    6.3765    2.1466   10.7881 H   0  0  0  0  0  0  0  0  0  0  0  0
    7.4787    2.1739    9.4126 H   0  0  0  0  0  0  0  0  0  0  0  0
    7.0222    3.6880   10.2130 H   0  0  0  0  0  0  0  0  0  0  0  0
    3.8984    2.7912   10.4515 H   0  0  0  0  0  0  0  0  0  0  0  0
    4.6087    4.3914   10.2465 H   0  0  0  0  0  0  0  0  0  0  0  0
    3.4904    3.7499    9.0251 H   0  0  0  0  0  0  0  0  0  0  0  0
    2.8157   -0.0173    5.1666 H   0  0  0  0  0  0  0  0  0  0  0  0
    4.1247    0.8298    6.0244 H   0  0  0  0  0  0  0  0  0  0  0  0
    5.8029   -0.6769    4.9551 H   0  0  0  0  0  0  0  0  0  0  0  0
    4.8078    0.0889    3.7076 H   0  0  0  0  0  0  0  0  0  0  0  0
    3.1413   -3.9599    2.2339 H   0  0  0  0  0  0  0  0  0  0  0  0
    3.4685   -2.5683    1.1804 H   0  0  0  0  0  0  0  0  0  0  0  0
    3.9207   -4.1856    0.6595 H   0  0  0  0  0  0  0  0  0  0  0  0
    7.5162    0.4992    0.8530 H   0  0  0  0  0  0  0  0  0  0  0  0
    7.5701    1.1895   -0.7655 H   0  0  0  0  0  0  0  0  0  0  0  0
    5.6205    1.9952    0.5327 H   0  0  0  0  0  0  0  0  0  0  0  0
    5.4399    1.9377   -1.9007 H   0  0  0  0  0  0  0  0  0  0  0  0
    4.8453    0.2457   -1.8585 H   0  0  0  0  0  0  0  0  0  0  0  0
    1.8047    1.1253   -0.0692 H   0  0  0  0  0  0  0  0  0  0  0  0
    2.7443   -0.2203   -0.7642 H   0  0  0  0  0  0  0  0  0  0  0  0
    3.5836    1.5461    1.5945 H   0  0  0  0  0  0  0  0  0  0  0  0
    3.0548   -0.1609    1.6915 H   0  0  0  0  0  0  0  0  0  0  0  0
   10.3066   -1.4704   -3.1338 H   0  0  0  0  0  0  0  0  0  0  0  0
    9.4173   -2.6253   -4.1714 H   0  0  0  0  0  0  0  0  0  0  0  0
    9.1598    0.4221   -4.1671 H   0  0  0  0  0  0  0  0  0  0  0  0
    9.8287   -0.5622   -5.4741 H   0  0  0  0  0  0  0  0  0  0  0  0
    7.6234   -1.5959   -5.8751 H   0  0  0  0  0  0  0  0  0  0  0  0
    7.4298    0.1668   -5.8926 H   0  0  0  0  0  0  0  0  0  0  0  0
    0.1477    4.2962   -2.5911 H   0  0  0  0  0  0  0  0  0  0  0  0
    1.4295    3.1611   -0.8370 H   0  0  0  0  0  0  0  0  0  0  0  0
    4.1385    1.5405   -3.7311 H   0  0  0  0  0  0  0  0  0  0  0  0
  1  2  1  0  0  0  0
  2  3  1  0  0  0  0
  3  4  1  0  0  0  0
  2  5  1  0  0  0  0
  5  6  4  0  0  0  0
  6  7  4  0  0  0  0
  7  8  4  0  0  0  0
  8  9  4  0  0  0  0
  5 10  4  0  0  0  0
  9 10  4  0  0  0  0
 10 11  1  0  0  0  0
 11 12  1  0  0  0  0
 12 13  1  0  0  0  0
 13 14  1  0  0  0  0
 11 15  2  0  0  0  0
 15 16  1  0  0  0  0
 16 17  1  0  0  0  0
 17 18  1  0  0  0  0
 17 19  1  0  0  0  0
 17 20  1  0  0  0  0
 20 21  1  0  0  0  0
 21 22  1  0  0  0  0
 22 23  1  0  0  0  0
 23 24  1  0  0  0  0
 24 25  1  0  0  0  0
 25 26  4  0  0  0  0
 26 27  1  0  0  0  0
 27 28  1  0  0  0  0
 28 29  4  0  0  0  0
 29 30  1  0  0  0  0
 30 31  1  0  0  0  0
 31 32  1  0  0  0  0
 31 33  1  0  0  0  0
 30 34  1  0  0  0  0
 34 35  4  0  0  0  0
 35 36  1  0  0  0  0
 36 37  1  0  0  0  0
 37 38  1  0  0  0  0
 38 39  1  0  0  0  0
 39 40  4  0  0  0  0
 40 41  1  0  0  0  0
 41 42  3  0  0  0  0
 42 43  1  0  0  0  0
 43 44  1  0  0  0  0
 44 45  1  0  0  0  0
 44 46  1  0  0  0  0
 43 47  1  0  0  0  0
 43 48  1  0  0  0  0
 40 49  2  0  0  0  0
 39 50  1  0  0  0  0
 36 51  1  0  0  0  0
 50 51  1  0  0  0  0
 35 52  2  0  0  0  0
 34 53  1  0  0  0  0
 29 54  2  0  0  0  0
 27 55  1  0  0  0  0
 55 56  1  0  0  0  0
 56 57  1  0  0  0  0
 57 58  1  0  0  0  0
 58 59  1  0  0  0  0
 59 60  1  0  0  0  0
 56 61  1  0  0  0  0
 60 61  1  0  0  0  0
 26 62  2  0  0  0  0
 25 63  1  0  0  0  0
 63 64  1  0  0  0  0
 23 65  1  0  0  0  0
 64 65  1  0  0  0  0
 22 66  2  0  0  0  0
 15 67  4  0  0  0  0
 12 68  1  0  0  0  0
 67 68  4  0  0  0  0
 68 69  4  0  0  0  0
 69 70  2  0  0  0  0
 58 71  1  0  0  0  0
 70 71  4  0  0  0  0
 67 72  4  0  0  0  0
 71 72  4  0  0  0  0
 36 73  1  0  0  0  0
  1 74  1  0  0  0  0
  1 75  1  0  0  0  0
  1 76  1  0  0  0  0
  2 77  1  0  0  0  0
  4 78  1  0  0  0  0
  4 79  1  0  0  0  0
  4 80  1  0  0  0  0
  7 81  1  0  0  0  0
  8 82  1  0  0  0  0
  9 83  1  0  0  0  0
 13 84  1  0  0  0  0
 13 85  1  0  0  0  0
 14 86  1  0  0  0  0
 14 87  1  0  0  0  0
 14 88  1  0  0  0  0
 16 89  1  0  0  0  0
 16 90  1  0  0  0  0
 18 91  1  0  0  0  0
 18 92  1  0  0  0  0
 18 93  1  0  0  0  0
 19 94  1  0  0  0  0
 19 95  1  0  0  0  0
 19 96  1  0  0  0  0
 20 97  1  0  0  0  0
 20 98  1  0  0  0  0
 23 99  1  0  0  0  0
 24100  1  0  0  0  0
 27101  1  0  0  0  0
 28102  1  0  0  0  0
 30103  1  0  0  0  0
 31104  1  0  0  0  0
 32105  1  0  0  0  0
 32106  1  0  0  0  0
 32107  1  0  0  0  0
 33108  1  0  0  0  0
 33109  1  0  0  0  0
 33110  1  0  0  0  0
 37111  1  0  0  0  0
 37112  1  0  0  0  0
 38113  1  0  0  0  0
 38114  1  0  0  0  0
 45115  1  0  0  0  0
 45116  1  0  0  0  0
 45117  1  0  0  0  0
 46118  1  0  0  0  0
 46119  1  0  0  0  0
 46120  1  0  0  0  0
 47121  1  0  0  0  0
 47122  1  0  0  0  0
 47123  1  0  0  0  0
 48124  1  0  0  0  0
 48125  1  0  0  0  0
 48126  1  0  0  0  0
 50127  1  0  0  0  0
 50128  1  0  0  0  0
 51129  1  0  0  0  0
 51130  1  0  0  0  0
 53131  1  0  0  0  0
 53132  1  0  0  0  0
 53133  1  0  0  0  0
 55134  1  0  0  0  0
 55135  1  0  0  0  0
 56136  1  0  0  0  0
 57137  1  0  0  0  0
 57138  1  0  0  0  0
 59139  1  0  0  0  0
 59140  1  0  0  0  0
 60141  1  0  0  0  0
 60142  1  0  0  0  0
 63143  1  0  0  0  0
 63144  1  0  0  0  0
 64145  1  0  0  0  0
 64146  1  0  0  0  0
 65147  1  0  0  0  0
 65148  1  0  0  0  0
 69149  1  0  0  0  0
 70150  1  0  0  0  0
 72151  1  0  0  0  0
M  END
$$$$
