 energy: -221.268696264920 gnorm: 0.000708012236 xtb: 6.7.1 (edcfbbe)
          08182521073D

151157  0     0  0            999 V2000
   -0.9451   15.4951  -10.9174 C   0  0  0  0  0  0  0  0  0  0  0  0
   -0.1222   14.4835  -11.7248 C   0  0  0  0  0  0  0  0  0  0  0  0
   -0.8962   13.3965  -12.1991 O   0  0  0  0  0  0  0  0  0  0  0  0
   -1.8677   13.7411  -13.1510 C   0  0  0  0  0  0  0  0  0  0  0  0
    1.0113   13.9191  -10.8965 C   0  0  0  0  0  0  0  0  0  0  0  0
    2.2062   14.4031  -11.2032 N   0  0  0  0  0  0  0  0  0  0  0  0
    3.2744   13.9551  -10.5704 C   0  0  0  0  0  0  0  0  0  0  0  0
    3.2168   12.9682   -9.6002 C   0  0  0  0  0  0  0  0  0  0  0  0
    1.9711   12.4676   -9.2630 C   0  0  0  0  0  0  0  0  0  0  0  0
    0.8297   12.9540   -9.8975 C   0  0  0  0  0  0  0  0  0  0  0  0
   -0.4923   12.4256   -9.5280 C   0  0  0  0  0  0  0  0  0  0  0  0
   -1.0070   11.3449  -10.2003 N   0  0  0  0  0  0  0  0  0  0  0  0
   -0.3390   10.5892  -11.2241 C   0  0  0  0  0  0  0  0  0  0  0  0
    0.3839    9.3746  -10.6425 C   0  0  0  0  0  0  0  0  0  0  0  0
   -1.3711   12.8435   -8.5533 C   0  0  0  0  0  0  0  0  0  0  0  0
   -1.2604   13.9616   -7.5620 C   0  0  0  0  0  0  0  0  0  0  0  0
   -0.2617   13.7935   -6.3771 C   0  0  0  0  0  0  0  0  0  0  0  0
   -0.8873   14.4082   -5.1205 C   0  0  0  0  0  0  0  0  0  0  0  0
    1.0282   14.5616   -6.6895 C   0  0  0  0  0  0  0  0  0  0  0  0
    0.1102   12.3199   -6.1071 C   0  0  0  0  0  0  0  0  0  0  0  0
   -0.6103   11.7567   -5.0064 O   0  0  0  0  0  0  0  0  0  0  0  0
   -1.0938   10.5322   -5.1431 C   0  0  0  0  0  0  0  0  0  0  0  0
   -1.7581   10.0552   -3.8566 C   0  0  0  0  0  0  0  0  0  0  0  0
   -1.9900    8.6243   -3.9650 N   0  0  0  0  0  0  0  0  0  0  0  0
   -2.7771    8.1385   -2.9168 N   0  0  0  0  0  0  0  0  0  0  0  0
   -4.0946    7.8497   -2.9447 C   0  0  0  0  0  0  0  0  0  0  0  0
   -4.8210    8.1614   -4.2577 C   0  0  0  0  0  0  0  0  0  0  0  0
   -5.9247    7.2594   -4.4713 N   0  0  0  0  0  0  0  0  0  0  0  0
   -5.9999    6.4806   -5.5623 C   0  0  0  0  0  0  0  0  0  0  0  0
   -7.3380    5.7578   -5.7389 C   0  0  0  0  0  0  0  0  0  0  0  0
   -7.1626    4.2377   -5.8517 C   0  0  0  0  0  0  0  0  0  0  0  0
   -8.5188    3.5557   -6.0101 C   0  0  0  0  0  0  0  0  0  0  0  0
   -6.4529    3.7294   -4.5978 C   0  0  0  0  0  0  0  0  0  0  0  0
   -7.9883    6.3563   -6.9067 N   0  0  0  0  0  0  0  0  0  0  0  0
   -8.9167    7.2956   -6.6629 C   0  0  0  0  0  0  0  0  0  0  0  0
   -9.7048    7.9114   -7.8337 C   0  0  0  0  0  0  0  0  0  0  0  0
   -8.9953    9.1844   -8.3094 C   0  0  0  0  0  0  0  0  0  0  0  0
   -9.8313    9.9107   -9.3628 C   0  0  0  0  0  0  0  0  0  0  0  0
  -11.1419   10.1978   -8.8305 N   0  0  0  0  0  0  0  0  0  0  0  0
  -11.4334   11.4564   -8.4111 C   0  0  0  0  0  0  0  0  0  0  0  0
  -12.7271   11.6042   -7.7906 C   0  0  0  0  0  0  0  0  0  0  0  0
  -13.7869   11.8807   -7.2897 C   0  0  0  0  0  0  0  0  0  0  0  0
  -15.0180   12.1256   -6.5400 C   0  0  0  0  0  0  0  0  0  0  0  0
  -14.7513   12.1150   -5.0913 N   0  0  0  0  0  0  0  0  0  0  0  0
  -14.2469   10.8467   -4.5986 C   0  0  0  0  0  0  0  0  0  0  0  0
  -13.8924   13.1995   -4.6491 C   0  0  0  0  0  0  0  0  0  0  0  0
  -15.5927   13.4865   -6.9625 C   0  0  0  0  0  0  0  0  0  0  0  0
  -16.0480   11.0384   -6.8892 C   0  0  0  0  0  0  0  0  0  0  0  0
  -10.6810   12.4024   -8.5663 O   0  0  0  0  0  0  0  0  0  0  0  0
  -11.8809    9.0195   -8.4545 C   0  0  0  0  0  0  0  0  0  0  0  0
  -11.1286    8.2418   -7.3703 C   0  0  0  0  0  0  0  0  0  0  0  0
   -9.1598    7.6963   -5.5316 O   0  0  0  0  0  0  0  0  0  0  0  0
   -7.4337    6.0250   -8.2024 C   0  0  0  0  0  0  0  0  0  0  0  0
   -5.1086    6.4155   -6.3909 O   0  0  0  0  0  0  0  0  0  0  0  0
   -5.3158    9.6188   -4.1854 C   0  0  0  0  0  0  0  0  0  0  0  0
   -5.0451   10.3872   -5.4838 C   0  0  0  0  0  0  0  0  0  0  0  0
   -5.8930    9.8592   -6.6538 C   0  0  0  0  0  0  0  0  0  0  0  0
   -5.9310   10.8321   -7.7279 N   0  0  0  0  0  0  0  0  0  0  0  0
   -6.5908   12.0573   -7.2926 C   0  0  0  0  0  0  0  0  0  0  0  0
   -6.4751   12.2662   -5.7705 C   0  0  0  0  0  0  0  0  0  0  0  0
   -5.2438   11.7807   -5.2771 O   0  0  0  0  0  0  0  0  0  0  0  0
   -4.6842    7.3894   -1.9833 O   0  0  0  0  0  0  0  0  0  0  0  0
   -2.0340    8.2048   -1.6729 C   0  0  0  0  0  0  0  0  0  0  0  0
   -1.6508    9.6638   -1.3997 C   0  0  0  0  0  0  0  0  0  0  0  0
   -0.9062   10.2584   -2.5984 C   0  0  0  0  0  0  0  0  0  0  0  0
   -1.0447    9.8690   -6.1467 O   0  0  0  0  0  0  0  0  0  0  0  0
   -2.5116   11.9882   -8.6595 C   0  0  0  0  0  0  0  0  0  0  0  0
   -2.2382   11.0583   -9.6885 C   0  0  0  0  0  0  0  0  0  0  0  0
   -3.1542   10.0693  -10.0292 C   0  0  0  0  0  0  0  0  0  0  0  0
   -4.3510   10.0412   -9.3529 C   0  0  0  0  0  0  0  0  0  0  0  0
   -4.6526   10.9743   -8.3487 C   0  0  0  0  0  0  0  0  0  0  0  0
   -3.7337   11.9410   -7.9909 C   0  0  0  0  0  0  0  0  0  0  0  0
   -9.8211    7.0148   -8.8935 F   0  0  0  0  0  0  0  0  0  0  0  0
   -1.5997   14.9627  -10.2331 H   0  0  0  0  0  0  0  0  0  0  0  0
   -0.2751   16.1414  -10.3567 H   0  0  0  0  0  0  0  0  0  0  0  0
   -1.5485   16.1136  -11.5772 H   0  0  0  0  0  0  0  0  0  0  0  0
    0.3422   15.0047  -12.5789 H   0  0  0  0  0  0  0  0  0  0  0  0
   -2.6850   14.3228  -12.7123 H   0  0  0  0  0  0  0  0  0  0  0  0
   -1.4275   14.3100  -13.9795 H   0  0  0  0  0  0  0  0  0  0  0  0
   -2.2671   12.8017  -13.5299 H   0  0  0  0  0  0  0  0  0  0  0  0
    4.2138   14.4008  -10.8698 H   0  0  0  0  0  0  0  0  0  0  0  0
    4.1132   12.6039   -9.1231 H   0  0  0  0  0  0  0  0  0  0  0  0
    1.8728   11.7013   -8.5070 H   0  0  0  0  0  0  0  0  0  0  0  0
   -1.0883   10.2646  -11.9507 H   0  0  0  0  0  0  0  0  0  0  0  0
    0.3660   11.2467  -11.7369 H   0  0  0  0  0  0  0  0  0  0  0  0
    1.1857    9.6898   -9.9792 H   0  0  0  0  0  0  0  0  0  0  0  0
   -0.3105    8.7613  -10.0731 H   0  0  0  0  0  0  0  0  0  0  0  0
    0.8111    8.7751  -11.4422 H   0  0  0  0  0  0  0  0  0  0  0  0
   -0.9913   14.8872   -8.0756 H   0  0  0  0  0  0  0  0  0  0  0  0
   -2.2585   14.1027   -7.1448 H   0  0  0  0  0  0  0  0  0  0  0  0
   -0.2021   14.3330   -4.2793 H   0  0  0  0  0  0  0  0  0  0  0  0
   -1.1097   15.4584   -5.2950 H   0  0  0  0  0  0  0  0  0  0  0  0
   -1.8086   13.8960   -4.8560 H   0  0  0  0  0  0  0  0  0  0  0  0
    1.7299   14.4876   -5.8610 H   0  0  0  0  0  0  0  0  0  0  0  0
    1.5060   14.1742   -7.5846 H   0  0  0  0  0  0  0  0  0  0  0  0
    0.8071   15.6146   -6.8485 H   0  0  0  0  0  0  0  0  0  0  0  0
   -0.0777   11.7034   -6.9909 H   0  0  0  0  0  0  0  0  0  0  0  0
    1.1703   12.2501   -5.8408 H   0  0  0  0  0  0  0  0  0  0  0  0
   -2.6897   10.6394   -3.7515 H   0  0  0  0  0  0  0  0  0  0  0  0
   -2.3115    8.3460   -4.8849 H   0  0  0  0  0  0  0  0  0  0  0  0
   -4.1642    8.0163   -5.1205 H   0  0  0  0  0  0  0  0  0  0  0  0
   -6.6420    7.2385   -3.7629 H   0  0  0  0  0  0  0  0  0  0  0  0
   -7.9875    5.9774   -4.8861 H   0  0  0  0  0  0  0  0  0  0  0  0
   -6.5345    4.0127   -6.7175 H   0  0  0  0  0  0  0  0  0  0  0  0
   -9.1365    3.7397   -5.1335 H   0  0  0  0  0  0  0  0  0  0  0  0
   -9.0491    3.9267   -6.8832 H   0  0  0  0  0  0  0  0  0  0  0  0
   -8.3878    2.4818   -6.1185 H   0  0  0  0  0  0  0  0  0  0  0  0
   -7.0325    3.9621   -3.7069 H   0  0  0  0  0  0  0  0  0  0  0  0
   -6.3257    2.6511   -4.6524 H   0  0  0  0  0  0  0  0  0  0  0  0
   -5.4708    4.1853   -4.4983 H   0  0  0  0  0  0  0  0  0  0  0  0
   -8.8756    9.8329   -7.4410 H   0  0  0  0  0  0  0  0  0  0  0  0
   -8.0056    8.9623   -8.7077 H   0  0  0  0  0  0  0  0  0  0  0  0
   -9.3563   10.8557   -9.6328 H   0  0  0  0  0  0  0  0  0  0  0  0
   -9.9397    9.2861  -10.2554 H   0  0  0  0  0  0  0  0  0  0  0  0
  -14.1212   10.9267   -3.5197 H   0  0  0  0  0  0  0  0  0  0  0  0
  -14.9658   10.0544   -4.7899 H   0  0  0  0  0  0  0  0  0  0  0  0
  -13.2789   10.5661   -5.0397 H   0  0  0  0  0  0  0  0  0  0  0  0
  -13.7361   13.0945   -3.5765 H   0  0  0  0  0  0  0  0  0  0  0  0
  -12.9112   13.2004   -5.1447 H   0  0  0  0  0  0  0  0  0  0  0  0
  -14.3782   14.1564   -4.8209 H   0  0  0  0  0  0  0  0  0  0  0  0
  -16.4000   13.7620   -6.2889 H   0  0  0  0  0  0  0  0  0  0  0  0
  -14.8308   14.2605   -6.9523 H   0  0  0  0  0  0  0  0  0  0  0  0
  -15.9836   13.4192   -7.9749 H   0  0  0  0  0  0  0  0  0  0  0  0
  -16.8907   11.1118   -6.2070 H   0  0  0  0  0  0  0  0  0  0  0  0
  -16.4021   11.1825   -7.9070 H   0  0  0  0  0  0  0  0  0  0  0  0
  -15.6203   10.0415   -6.8245 H   0  0  0  0  0  0  0  0  0  0  0  0
  -12.8694    9.3087   -8.0939 H   0  0  0  0  0  0  0  0  0  0  0  0
  -11.9972    8.3850   -9.3406 H   0  0  0  0  0  0  0  0  0  0  0  0
  -11.6544    7.3119   -7.1480 H   0  0  0  0  0  0  0  0  0  0  0  0
  -11.0600    8.8266   -6.4531 H   0  0  0  0  0  0  0  0  0  0  0  0
   -6.3667    5.8447   -8.0771 H   0  0  0  0  0  0  0  0  0  0  0  0
   -7.9112    5.1375   -8.6218 H   0  0  0  0  0  0  0  0  0  0  0  0
   -7.5533    6.8460   -8.9019 H   0  0  0  0  0  0  0  0  0  0  0  0
   -6.3880    9.6212   -3.9765 H   0  0  0  0  0  0  0  0  0  0  0  0
   -4.8311   10.1494   -3.3620 H   0  0  0  0  0  0  0  0  0  0  0  0
   -3.9842   10.2903   -5.7540 H   0  0  0  0  0  0  0  0  0  0  0  0
   -5.4630    8.9293   -7.0282 H   0  0  0  0  0  0  0  0  0  0  0  0
   -6.9144    9.6601   -6.3171 H   0  0  0  0  0  0  0  0  0  0  0  0
   -6.1583   12.8991   -7.8339 H   0  0  0  0  0  0  0  0  0  0  0  0
   -7.6516   11.9945   -7.5649 H   0  0  0  0  0  0  0  0  0  0  0  0
   -6.4904   13.3280   -5.5185 H   0  0  0  0  0  0  0  0  0  0  0  0
   -7.3105   11.7770   -5.2512 H   0  0  0  0  0  0  0  0  0  0  0  0
   -2.6679    7.8039   -0.8821 H   0  0  0  0  0  0  0  0  0  0  0  0
   -1.1353    7.5918   -1.7774 H   0  0  0  0  0  0  0  0  0  0  0  0
   -2.5590   10.2413   -1.2125 H   0  0  0  0  0  0  0  0  0  0  0  0
   -1.0265    9.7138   -0.5078 H   0  0  0  0  0  0  0  0  0  0  0  0
    0.0431    9.7381   -2.7343 H   0  0  0  0  0  0  0  0  0  0  0  0
   -0.7098   11.3188   -2.4445 H   0  0  0  0  0  0  0  0  0  0  0  0
   -2.9432    9.3462  -10.8025 H   0  0  0  0  0  0  0  0  0  0  0  0
   -5.0906    9.2917   -9.5903 H   0  0  0  0  0  0  0  0  0  0  0  0
   -3.9499   12.6388   -7.1957 H   0  0  0  0  0  0  0  0  0  0  0  0
  1  2  1  0  0  0  0
  2  3  1  0  0  0  0
  2  5  1  0  0  0  0
  3  4  1  0  0  0  0
  5  6  2  0  0  0  0
  5 10  1  0  0  0  0
  6  7  1  0  0  0  0
  7  8  2  0  0  0  0
  8  9  1  0  0  0  0
  9 10  2  0  0  0  0
 10 11  1  0  0  0  0
 11 12  1  0  0  0  0
 11 15  2  0  0  0  0
 12 13  1  0  0  0  0
 12 68  1  0  0  0  0
 13 14  1  0  0  0  0
 15 16  1  0  0  0  0
 15 67  1  0  0  0  0
 16 17  1  0  0  0  0
 17 18  1  0  0  0  0
 17 19  1  0  0  0  0
 17 20  1  0  0  0  0
 20 21  1  0  0  0  0
 21 22  1  0  0  0  0
 22 23  1  0  0  0  0
 22 66  2  0  0  0  0
 23 24  1  0  0  0  0
 23 65  1  0  0  0  0
 24 25  1  0  0  0  0
 25 26  1  0  0  0  0
 25 63  1  0  0  0  0
 26 27  1  0  0  0  0
 26 62  2  0  0  0  0
 27 28  1  0  0  0  0
 27 55  1  0  0  0  0
 28 29  1  0  0  0  0
 29 30  1  0  0  0  0
 29 54  2  0  0  0  0
 30 31  1  0  0  0  0
 30 34  1  0  0  0  0
 31 32  1  0  0  0  0
 31 33  1  0  0  0  0
 34 35  1  0  0  0  0
 34 53  1  0  0  0  0
 35 36  1  0  0  0  0
 35 52  2  0  0  0  0
 36 37  1  0  0  0  0
 36 51  1  0  0  0  0
 36 73  1  0  0  0  0
 37 38  1  0  0  0  0
 38 39  1  0  0  0  0
 39 40  1  0  0  0  0
 39 50  1  0  0  0  0
 40 41  1  0  0  0  0
 40 49  2  0  0  0  0
 42 43  1  0  0  0  0
 43 44  1  0  0  0  0
 43 47  1  0  0  0  0
 43 48  1  0  0  0  0
 44 45  1  0  0  0  0
 44 46  1  0  0  0  0
 50 51  1  0  0  0  0
 55 56  1  0  0  0  0
 56 57  1  0  0  0  0
 56 61  1  0  0  0  0
 57 58  1  0  0  0  0
 58 59  1  0  0  0  0
 58 71  1  0  0  0  0
 59 60  1  0  0  0  0
 60 61  1  0  0  0  0
 63 64  1  0  0  0  0
 64 65  1  0  0  0  0
 67 68  2  0  0  0  0
 67 72  1  0  0  0  0
 68 69  1  0  0  0  0
 69 70  2  0  0  0  0
 70 71  1  0  0  0  0
 71 72  2  0  0  0  0
 41 42  3  0  0  0  0
  1 74  1  0  0  0  0
  1 75  1  0  0  0  0
  1 76  1  0  0  0  0
  2 77  1  0  0  0  0
  4 78  1  0  0  0  0
  4 79  1  0  0  0  0
  4 80  1  0  0  0  0
  7 81  1  0  0  0  0
  8 82  1  0  0  0  0
  9 83  1  0  0  0  0
 13 84  1  0  0  0  0
 13 85  1  0  0  0  0
 14 86  1  0  0  0  0
 14 87  1  0  0  0  0
 14 88  1  0  0  0  0
 16 89  1  0  0  0  0
 16 90  1  0  0  0  0
 18 91  1  0  0  0  0
 18 92  1  0  0  0  0
 18 93  1  0  0  0  0
 19 94  1  0  0  0  0
 19 95  1  0  0  0  0
 19 96  1  0  0  0  0
 20 97  1  0  0  0  0
 20 98  1  0  0  0  0
 23 99  1  0  0  0  0
 24100  1  0  0  0  0
 27101  1  0  0  0  0
 28102  1  0  0  0  0
 30103  1  0  0  0  0
 31104  1  0  0  0  0
 32105  1  0  0  0  0
 32106  1  0  0  0  0
 32107  1  0  0  0  0
 33108  1  0  0  0  0
 33109  1  0  0  0  0
 33110  1  0  0  0  0
 37111  1  0  0  0  0
 37112  1  0  0  0  0
 38113  1  0  0  0  0
 38114  1  0  0  0  0
 45115  1  0  0  0  0
 45116  1  0  0  0  0
 45117  1  0  0  0  0
 46118  1  0  0  0  0
 46119  1  0  0  0  0
 46120  1  0  0  0  0
 47121  1  0  0  0  0
 47122  1  0  0  0  0
 47123  1  0  0  0  0
 48124  1  0  0  0  0
 48125  1  0  0  0  0
 48126  1  0  0  0  0
 50127  1  0  0  0  0
 50128  1  0  0  0  0
 51129  1  0  0  0  0
 51130  1  0  0  0  0
 53131  1  0  0  0  0
 53132  1  0  0  0  0
 53133  1  0  0  0  0
 55134  1  0  0  0  0
 55135  1  0  0  0  0
 56136  1  0  0  0  0
 57137  1  0  0  0  0
 57138  1  0  0  0  0
 59139  1  0  0  0  0
 59140  1  0  0  0  0
 60141  1  0  0  0  0
 60142  1  0  0  0  0
 63143  1  0  0  0  0
 63144  1  0  0  0  0
 64145  1  0  0  0  0
 64146  1  0  0  0  0
 65147  1  0  0  0  0
 65148  1  0  0  0  0
 69149  1  0  0  0  0
 70150  1  0  0  0  0
 72151  1  0  0  0  0
M  END
$$$$
