mol_bioactive_37
     RDKit          3D

151157  0  0  0  0  0  0  0  0999 V2000
    3.6450    2.1358   -6.1068 C   0  0  0  0  0  0  0  0  0  0  0  0
    4.6587    2.0296   -4.9695 C   0  0  2  0  0  0  0  0  0  0  0  0
    4.2281    1.0761   -3.9912 O   0  0  0  0  0  0  0  0  0  0  0  0
    4.5943   -0.2590   -4.3030 C   0  0  0  0  0  0  0  0  0  0  0  0
    4.9611    3.3948   -4.3617 C   0  0  0  0  0  0  0  0  0  0  0  0
    6.1593    3.9220   -4.7685 N   0  0  0  0  0  0  0  0  0  0  0  0
    6.5048    5.1496   -4.3266 C   0  0  0  0  0  0  0  0  0  0  0  0
    5.7101    5.9152   -3.5002 C   0  0  0  0  0  0  0  0  0  0  0  0
    4.4894    5.3863   -3.1000 C   0  0  0  0  0  0  0  0  0  0  0  0
    4.0888    4.1075   -3.5187 C   0  0  0  0  0  0  0  0  0  0  0  0
    2.7861    3.6141   -3.0553 C   0  0  0  0  0  0  0  0  0  0  0  0
    1.5809    3.9673   -3.6460 N   0  0  0  0  0  0  0  0  0  0  0  0
    1.4160    4.8789   -4.7713 C   0  0  0  0  0  0  0  0  0  0  0  0
    0.9909    6.2713   -4.3326 C   0  0  0  0  0  0  0  0  0  0  0  0
    2.4968    2.7530   -1.9953 C   0  0  0  0  0  0  0  0  0  0  0  0
    3.4712    2.0903   -1.0427 C   0  0  0  0  0  0  0  0  0  0  0  0
    3.6922    2.7614    0.3475 C   0  0  0  0  0  0  0  0  0  0  0  0
    4.1139    4.2339    0.1867 C   0  0  0  0  0  0  0  0  0  0  0  0
    4.8603    2.0146    1.0327 C   0  0  0  0  0  0  0  0  0  0  0  0
    2.4377    2.7191    1.2585 C   0  0  0  0  0  0  0  0  0  0  0  0
    2.1378    1.3980    1.7712 O   0  0  0  0  0  0  0  0  0  0  0  0
    2.4031    1.2083    3.1059 C   0  0  0  0  0  0  0  0  0  0  0  0
    1.8781   -0.1463    3.6078 C   0  0  1  0  0  0  0  0  0  0  0  0
    2.1073   -1.2116    2.6116 N   0  0  0  0  0  0  0  0  0  0  0  0
    1.5991   -2.4664    3.0744 N   0  0  0  0  0  0  0  0  0  0  0  0
    0.7880   -3.3347    2.3221 C   0  0  0  0  0  0  0  0  0  0  0  0
   -0.0286   -2.7107    1.1681 C   0  0  1  0  0  0  0  0  0  0  0  0
   -0.3352   -3.6756    0.1191 N   0  0  0  0  0  0  0  0  0  0  0  0
    0.6540   -4.0264   -0.7831 C   0  0  0  0  0  0  0  0  0  0  0  0
    0.1775   -4.9299   -1.9437 C   0  0  2  0  0  0  0  0  0  0  0  0
    0.7705   -6.3584   -1.8210 C   0  0  0  0  0  0  0  0  0  0  0  0
    0.2365   -7.2665   -2.9360 C   0  0  0  0  0  0  0  0  0  0  0  0
    0.4378   -6.9925   -0.4642 C   0  0  0  0  0  0  0  0  0  0  0  0
    0.4619   -4.2347   -3.2311 N   0  0  0  0  0  0  0  0  0  0  0  0
   -0.5311   -3.3714   -3.7007 C   0  0  0  0  0  0  0  0  0  0  0  0
   -0.3120   -2.5624   -5.0018 C   0  0  0  0  0  0  0  0  0  0  0  0
    0.5666   -1.3262   -4.7515 C   0  0  0  0  0  0  0  0  0  0  0  0
    0.6675   -0.4635   -6.0103 C   0  0  0  0  0  0  0  0  0  0  0  0
   -0.6624   -0.1385   -6.5020 N   0  0  0  0  0  0  0  0  0  0  0  0
   -1.0835    1.1838   -6.5153 C   0  0  0  0  0  0  0  0  0  0  0  0
   -2.5054    1.4401   -6.5864 C   0  0  0  0  0  0  0  0  0  0  0  0
   -3.6922    1.6360   -6.5662 C   0  0  0  0  0  0  0  0  0  0  0  0
   -5.1528    1.8623   -6.4783 C   0  0  0  0  0  0  0  0  0  0  0  0
   -5.8229    1.7940   -7.8050 N   0  0  0  0  0  0  0  0  0  0  0  0
   -5.3941    2.8321   -8.7485 C   0  0  0  0  0  0  0  0  0  0  0  0
   -5.7416    0.4850   -8.4597 C   0  0  0  0  0  0  0  0  0  0  0  0
   -5.3955    3.2374   -5.8127 C   0  0  0  0  0  0  0  0  0  0  0  0
   -5.7496    0.8066   -5.5150 C   0  0  0  0  0  0  0  0  0  0  0  0
   -0.3331    2.1483   -6.4309 O   0  0  0  0  0  0  0  0  0  0  0  0
   -1.5087   -1.2835   -6.8071 C   0  0  0  0  0  0  0  0  0  0  0  0
   -1.6821   -2.1435   -5.5689 C   0  0  0  0  0  0  0  0  0  0  0  0
   -1.5858   -3.2357   -3.0675 O   0  0  0  0  0  0  0  0  0  0  0  0
    1.8428   -4.2248   -3.7171 C   0  0  0  0  0  0  0  0  0  0  0  0
    1.8136   -3.6302   -0.6719 O   0  0  0  0  0  0  0  0  0  0  0  0
   -1.3105   -2.0944    1.7677 C   0  0  0  0  0  0  0  0  0  0  0  0
   -2.1344   -1.2324    0.7960 C   0  0  1  0  0  0  0  0  0  0  0  0
   -1.2442   -0.2129    0.0750 C   0  0  0  0  0  0  0  0  0  0  0  0
   -1.9797    0.6084   -0.9067 N   0  0  0  0  0  0  0  0  0  0  0  0
   -2.7913   -0.2437   -1.8207 C   0  0  0  0  0  0  0  0  0  0  0  0
   -3.6095   -1.2870   -1.0312 C   0  0  0  0  0  0  0  0  0  0  0  0
   -2.7895   -2.0880   -0.1568 O   0  0  0  0  0  0  0  0  0  0  0  0
    0.6246   -4.5164    2.6413 O   0  0  0  0  0  0  0  0  0  0  0  0
    2.2762   -2.9655    4.2746 C   0  0  0  0  0  0  0  0  0  0  0  0
    2.1597   -1.9326    5.3951 C   0  0  0  0  0  0  0  0  0  0  0  0
    2.5879   -0.5425    4.9156 C   0  0  0  0  0  0  0  0  0  0  0  0
    2.9216    2.0450    3.8361 O   0  0  0  0  0  0  0  0  0  0  0  0
    1.0918    2.4964   -2.0571 C   0  0  0  0  0  0  0  0  0  0  0  0
    0.5387    3.2734   -3.0644 C   0  0  0  0  0  0  0  0  0  0  0  0
   -0.8391    3.2447   -3.3363 C   0  0  0  0  0  0  0  0  0  0  0  0
   -1.6536    2.3678   -2.5966 C   0  0  0  0  0  0  0  0  0  0  0  0
   -1.1385    1.5227   -1.6087 C   0  0  0  0  0  0  0  0  0  0  0  0
    0.2404    1.6370   -1.3361 C   0  0  0  0  0  0  0  0  0  0  0  0
    0.2843   -3.3268   -5.9734 F   0  0  0  0  0  0  0  0  0  0  0  0
    2.6379    2.3373   -5.7302 H   0  0  0  0  0  0  0  0  0  0  0  0
    3.9118    2.9268   -6.8171 H   0  0  0  0  0  0  0  0  0  0  0  0
    3.5821    1.1916   -6.6583 H   0  0  0  0  0  0  0  0  0  0  0  0
    5.6038    1.6697   -5.4022 H   0  0  0  0  0  0  0  0  0  0  0  0
    4.2292   -0.9085   -3.5016 H   0  0  0  0  0  0  0  0  0  0  0  0
    4.1379   -0.5823   -5.2429 H   0  0  0  0  0  0  0  0  0  0  0  0
    5.6831   -0.3581   -4.3571 H   0  0  0  0  0  0  0  0  0  0  0  0
    7.4709    5.5096   -4.6675 H   0  0  0  0  0  0  0  0  0  0  0  0
    6.0308    6.8969   -3.1729 H   0  0  0  0  0  0  0  0  0  0  0  0
    3.8475    5.9710   -2.4458 H   0  0  0  0  0  0  0  0  0  0  0  0
    2.3552    4.9264   -5.3295 H   0  0  0  0  0  0  0  0  0  0  0  0
    0.6724    4.4481   -5.4478 H   0  0  0  0  0  0  0  0  0  0  0  0
    1.7039    6.7022   -3.6224 H   0  0  0  0  0  0  0  0  0  0  0  0
    0.9268    6.9369   -5.1988 H   0  0  0  0  0  0  0  0  0  0  0  0
    0.0108    6.2517   -3.8472 H   0  0  0  0  0  0  0  0  0  0  0  0
    3.1567    1.0477   -0.8936 H   0  0  0  0  0  0  0  0  0  0  0  0
    4.4435    2.0231   -1.5489 H   0  0  0  0  0  0  0  0  0  0  0  0
    4.3705    4.6775    1.1561 H   0  0  0  0  0  0  0  0  0  0  0  0
    4.9990    4.3239   -0.4521 H   0  0  0  0  0  0  0  0  0  0  0  0
    3.3089    4.8396   -0.2407 H   0  0  0  0  0  0  0  0  0  0  0  0
    5.0640    2.4249    2.0274 H   0  0  0  0  0  0  0  0  0  0  0  0
    4.6456    0.9464    1.1438 H   0  0  0  0  0  0  0  0  0  0  0  0
    5.7826    2.1027    0.4473 H   0  0  0  0  0  0  0  0  0  0  0  0
    2.5486    3.4375    2.0810 H   0  0  0  0  0  0  0  0  0  0  0  0
    1.5501    3.0594    0.7173 H   0  0  0  0  0  0  0  0  0  0  0  0
    0.8021   -0.0249    3.7838 H   0  0  0  0  0  0  0  0  0  0  0  0
    1.7734   -0.9262    1.6936 H   0  0  0  0  0  0  0  0  0  0  0  0
    0.5908   -1.9517    0.6953 H   0  0  0  0  0  0  0  0  0  0  0  0
   -1.2989   -3.7046   -0.2166 H   0  0  0  0  0  0  0  0  0  0  0  0
   -0.9101   -5.0396   -1.8540 H   0  0  0  0  0  0  0  0  0  0  0  0
    1.8647   -6.3202   -1.8955 H   0  0  0  0  0  0  0  0  0  0  0  0
   -0.8566   -7.3182   -2.9130 H   0  0  0  0  0  0  0  0  0  0  0  0
    0.5360   -6.9078   -3.9251 H   0  0  0  0  0  0  0  0  0  0  0  0
    0.6258   -8.2840   -2.8282 H   0  0  0  0  0  0  0  0  0  0  0  0
   -0.6406   -6.9845   -0.2719 H   0  0  0  0  0  0  0  0  0  0  0  0
    0.7816   -8.0311   -0.4247 H   0  0  0  0  0  0  0  0  0  0  0  0
    0.9354   -6.4602    0.3535 H   0  0  0  0  0  0  0  0  0  0  0  0
    0.1421   -0.7325   -3.9323 H   0  0  0  0  0  0  0  0  0  0  0  0
    1.5776   -1.6103   -4.4458 H   0  0  0  0  0  0  0  0  0  0  0  0
    1.2327    0.4439   -5.7832 H   0  0  0  0  0  0  0  0  0  0  0  0
    1.2005   -0.9980   -6.8066 H   0  0  0  0  0  0  0  0  0  0  0  0
   -5.5968    3.8371   -8.3666 H   0  0  0  0  0  0  0  0  0  0  0  0
   -4.3313    2.7580   -9.0030 H   0  0  0  0  0  0  0  0  0  0  0  0
   -5.9664    2.7590   -9.6818 H   0  0  0  0  0  0  0  0  0  0  0  0
   -6.1971   -0.3045   -7.8535 H   0  0  0  0  0  0  0  0  0  0  0  0
   -6.3121    0.4916   -9.3966 H   0  0  0  0  0  0  0  0  0  0  0  0
   -4.7118    0.1961   -8.6982 H   0  0  0  0  0  0  0  0  0  0  0  0
   -5.0305    3.2473   -4.7767 H   0  0  0  0  0  0  0  0  0  0  0  0
   -4.8682    4.0513   -6.3250 H   0  0  0  0  0  0  0  0  0  0  0  0
   -6.4640    3.4826   -5.7850 H   0  0  0  0  0  0  0  0  0  0  0  0
   -5.3710    0.9432   -4.4932 H   0  0  0  0  0  0  0  0  0  0  0  0
   -6.8424    0.8797   -5.4718 H   0  0  0  0  0  0  0  0  0  0  0  0
   -5.4837   -0.2173   -5.8006 H   0  0  0  0  0  0  0  0  0  0  0  0
   -2.4821   -0.9740   -7.1950 H   0  0  0  0  0  0  0  0  0  0  0  0
   -1.0159   -1.8515   -7.6054 H   0  0  0  0  0  0  0  0  0  0  0  0
   -2.2651   -3.0346   -5.8299 H   0  0  0  0  0  0  0  0  0  0  0  0
   -2.2568   -1.5826   -4.8211 H   0  0  0  0  0  0  0  0  0  0  0  0
    2.4538   -3.6002   -3.0595 H   0  0  0  0  0  0  0  0  0  0  0  0
    2.2448   -5.2398   -3.7412 H   0  0  0  0  0  0  0  0  0  0  0  0
    1.9312   -3.8275   -4.7268 H   0  0  0  0  0  0  0  0  0  0  0  0
   -1.9470   -2.9024    2.1522 H   0  0  0  0  0  0  0  0  0  0  0  0
   -1.0386   -1.4696    2.6272 H   0  0  0  0  0  0  0  0  0  0  0  0
   -2.9112   -0.7120    1.3735 H   0  0  0  0  0  0  0  0  0  0  0  0
   -0.7750    0.4220    0.8373 H   0  0  0  0  0  0  0  0  0  0  0  0
   -0.4798   -0.7604   -0.4885 H   0  0  0  0  0  0  0  0  0  0  0  0
   -3.4935    0.3577   -2.4088 H   0  0  0  0  0  0  0  0  0  0  0  0
   -2.1182   -0.7661   -2.5093 H   0  0  0  0  0  0  0  0  0  0  0  0
   -4.3885   -0.7951   -0.4344 H   0  0  0  0  0  0  0  0  0  0  0  0
   -4.1102   -1.9674   -1.7278 H   0  0  0  0  0  0  0  0  0  0  0  0
    1.8431   -3.9159    4.6008 H   0  0  0  0  0  0  0  0  0  0  0  0
    3.3260   -3.1493    4.0159 H   0  0  0  0  0  0  0  0  0  0  0  0
    1.1172   -1.8835    5.7329 H   0  0  0  0  0  0  0  0  0  0  0  0
    2.7638   -2.2389    6.2561 H   0  0  0  0  0  0  0  0  0  0  0  0
    3.6774   -0.5293    4.7718 H   0  0  0  0  0  0  0  0  0  0  0  0
    2.3692    0.1922    5.7009 H   0  0  0  0  0  0  0  0  0  0  0  0
   -1.2732    3.8592   -4.1198 H   0  0  0  0  0  0  0  0  0  0  0  0
   -2.7184    2.3712   -2.8132 H   0  0  0  0  0  0  0  0  0  0  0  0
    0.7270    1.0350   -0.5825 H   0  0  0  0  0  0  0  0  0  0  0  0
  1  2  1  0
  2  3  1  0
  2  5  1  0
  3  4  1  0
  5  6  2  0
  5 10  1  0
  6  7  1  0
  7  8  2  0
  8  9  1  0
  9 10  2  0
 10 11  1  0
 11 12  1  0
 11 15  2  0
 12 13  1  0
 12 68  1  0
 13 14  1  0
 15 16  1  0
 15 67  1  0
 16 17  1  0
 17 18  1  0
 17 19  1  0
 17 20  1  0
 20 21  1  0
 21 22  1  0
 22 23  1  0
 22 66  2  0
 23 24  1  0
 23 65  1  0
 24 25  1  0
 25 26  1  0
 25 63  1  0
 26 27  1  0
 26 62  2  0
 27 28  1  0
 27 55  1  0
 28 29  1  0
 29 30  1  0
 29 54  2  0
 30 31  1  0
 30 34  1  0
 31 32  1  0
 31 33  1  0
 34 35  1  0
 34 53  1  0
 35 36  1  0
 35 52  2  0
 36 37  1  0
 36 51  1  0
 36 73  1  0
 37 38  1  0
 38 39  1  0
 39 40  1  0
 39 50  1  0
 40 41  1  0
 40 49  2  0
 42 43  1  0
 43 44  1  0
 43 47  1  0
 43 48  1  0
 44 45  1  0
 44 46  1  0
 50 51  1  0
 55 56  1  0
 56 57  1  0
 56 61  1  0
 57 58  1  0
 58 59  1  0
 58 71  1  0
 59 60  1  0
 60 61  1  0
 63 64  1  0
 64 65  1  0
 67 68  2  0
 67 72  1  0
 68 69  1  0
 69 70  2  0
 70 71  1  0
 71 72  2  0
 41 42  3  0
  1 74  1  0
  1 75  1  0
  1 76  1  0
  2 77  1  6
  4 78  1  0
  4 79  1  0
  4 80  1  0
  7 81  1  0
  8 82  1  0
  9 83  1  0
 13 84  1  0
 13 85  1  0
 14 86  1  0
 14 87  1  0
 14 88  1  0
 16 89  1  0
 16 90  1  0
 18 91  1  0
 18 92  1  0
 18 93  1  0
 19 94  1  0
 19 95  1  0
 19 96  1  0
 20 97  1  0
 20 98  1  0
 23 99  1  1
 24100  1  0
 27101  1  6
 28102  1  0
 30103  1  1
 31104  1  0
 32105  1  0
 32106  1  0
 32107  1  0
 33108  1  0
 33109  1  0
 33110  1  0
 37111  1  0
 37112  1  0
 38113  1  0
 38114  1  0
 45115  1  0
 45116  1  0
 45117  1  0
 46118  1  0
 46119  1  0
 46120  1  0
 47121  1  0
 47122  1  0
 47123  1  0
 48124  1  0
 48125  1  0
 48126  1  0
 50127  1  0
 50128  1  0
 51129  1  0
 51130  1  0
 53131  1  0
 53132  1  0
 53133  1  0
 55134  1  0
 55135  1  0
 56136  1  1
 57137  1  0
 57138  1  0
 59139  1  0
 59140  1  0
 60141  1  0
 60142  1  0
 63143  1  0
 63144  1  0
 64145  1  0
 64146  1  0
 65147  1  0
 65148  1  0
 69149  1  0
 70150  1  0
 72151  1  0
M  END
$$$$
