mol_bioactive_6
     RDKit          3D

151157  0  0  0  0  0  0  0  0999 V2000
    4.6280   -0.2179    5.0708 C   0  0  0  0  0  0  0  0  0  0  0  0
    4.0353   -1.6105    5.1699 C   0  0  2  0  0  0  0  0  0  0  0  0
    3.9811   -2.2106    3.8667 O   0  0  0  0  0  0  0  0  0  0  0  0
    5.1372   -2.9777    3.5654 C   0  0  0  0  0  0  0  0  0  0  0  0
    2.6784   -1.7065    5.8517 C   0  0  0  0  0  0  0  0  0  0  0  0
    2.6240   -2.7295    6.7647 N   0  0  0  0  0  0  0  0  0  0  0  0
    1.4877   -2.9269    7.4597 C   0  0  0  0  0  0  0  0  0  0  0  0
    0.3680   -2.1398    7.3199 C   0  0  0  0  0  0  0  0  0  0  0  0
    0.4188   -1.1037    6.3977 C   0  0  0  0  0  0  0  0  0  0  0  0
    1.5700   -0.8694    5.6272 C   0  0  0  0  0  0  0  0  0  0  0  0
    1.5036    0.2436    4.6651 C   0  0  0  0  0  0  0  0  0  0  0  0
    1.5547    1.5781    5.0441 N   0  0  0  0  0  0  0  0  0  0  0  0
    1.8284    2.0746    6.3878 C   0  0  0  0  0  0  0  0  0  0  0  0
    0.5921    2.5687    7.1177 C   0  0  0  0  0  0  0  0  0  0  0  0
    1.2861    0.2169    3.2850 C   0  0  0  0  0  0  0  0  0  0  0  0
    1.1954   -1.0018    2.3935 C   0  0  0  0  0  0  0  0  0  0  0  0
   -0.2152   -1.5999    2.1074 C   0  0  0  0  0  0  0  0  0  0  0  0
   -1.0188   -1.8220    3.3994 C   0  0  0  0  0  0  0  0  0  0  0  0
    0.0129   -2.9843    1.4656 C   0  0  0  0  0  0  0  0  0  0  0  0
   -1.0596   -0.7048    1.1703 C   0  0  0  0  0  0  0  0  0  0  0  0
   -0.5992   -0.6778   -0.1969 O   0  0  0  0  0  0  0  0  0  0  0  0
   -1.2921   -1.4693   -1.0771 C   0  0  0  0  0  0  0  0  0  0  0  0
   -0.9205   -1.1487   -2.5268 C   0  0  1  0  0  0  0  0  0  0  0  0
    0.5325   -1.2108   -2.7518 N   0  0  0  0  0  0  0  0  0  0  0  0
    0.8282   -0.7863   -4.0817 N   0  0  0  0  0  0  0  0  0  0  0  0
    1.0180    0.5635   -4.4253 C   0  0  0  0  0  0  0  0  0  0  0  0
    1.3229    1.5471   -3.2754 C   0  0  1  0  0  0  0  0  0  0  0  0
    2.7672    1.5586   -3.0893 N   0  0  0  0  0  0  0  0  0  0  0  0
    3.4026    0.7274   -2.1913 C   0  0  0  0  0  0  0  0  0  0  0  0
    4.9486    0.7523   -2.2734 C   0  0  2  0  0  0  0  0  0  0  0  0
    5.4996   -0.5297   -2.9551 C   0  0  0  0  0  0  0  0  0  0  0  0
    7.0125   -0.4221   -3.1937 C   0  0  0  0  0  0  0  0  0  0  0  0
    4.8185   -0.8181   -4.2995 C   0  0  0  0  0  0  0  0  0  0  0  0
    5.4852    1.0415   -0.9189 N   0  0  0  0  0  0  0  0  0  0  0  0
    5.3816    2.3756   -0.5049 C   0  0  0  0  0  0  0  0  0  0  0  0
    5.8597    2.8077    0.9087 C   0  0  0  0  0  0  0  0  0  0  0  0
    4.9429    2.2967    2.0216 C   0  0  0  0  0  0  0  0  0  0  0  0
    5.4384    2.7936    3.3674 C   0  0  0  0  0  0  0  0  0  0  0  0
    5.4599    4.2426    3.3859 N   0  0  0  0  0  0  0  0  0  0  0  0
    4.8768    4.8878    4.4627 C   0  0  0  0  0  0  0  0  0  0  0  0
    4.6037    6.3011    4.3943 C   0  0  0  0  0  0  0  0  0  0  0  0
    4.1612    7.4070    4.5607 C   0  0  0  0  0  0  0  0  0  0  0  0
    3.4104    8.5979    5.0229 C   0  0  0  0  0  0  0  0  0  0  0  0
    3.8672    9.0373    6.3785 N   0  0  0  0  0  0  0  0  0  0  0  0
    3.6117    8.0499    7.4366 C   0  0  0  0  0  0  0  0  0  0  0  0
    5.2734    9.4475    6.4369 C   0  0  0  0  0  0  0  0  0  0  0  0
    3.5431    9.7460    4.0048 C   0  0  0  0  0  0  0  0  0  0  0  0
    1.9102    8.2079    5.0750 C   0  0  0  0  0  0  0  0  0  0  0  0
    4.4946    4.3065    5.4755 O   0  0  0  0  0  0  0  0  0  0  0  0
    6.2609    4.8794    2.3573 C   0  0  0  0  0  0  0  0  0  0  0  0
    5.9178    4.3501    0.9708 C   0  0  0  0  0  0  0  0  0  0  0  0
    4.9099    3.2245   -1.2760 O   0  0  0  0  0  0  0  0  0  0  0  0
    5.7280   -0.0726   -0.0082 C   0  0  0  0  0  0  0  0  0  0  0  0
    2.7753    0.0291   -1.3969 O   0  0  0  0  0  0  0  0  0  0  0  0
    0.7733    2.9552   -3.5722 C   0  0  0  0  0  0  0  0  0  0  0  0
    0.7353    3.9378   -2.3748 C   0  0  1  0  0  0  0  0  0  0  0  0
    0.8511    3.2596   -0.9996 C   0  0  0  0  0  0  0  0  0  0  0  0
    0.8884    4.2143    0.1312 N   0  0  0  0  0  0  0  0  0  0  0  0
    1.8754    5.3014   -0.1151 C   0  0  0  0  0  0  0  0  0  0  0  0
    1.7069    5.9027   -1.5186 C   0  0  0  0  0  0  0  0  0  0  0  0
    1.7834    4.9087   -2.5507 O   0  0  0  0  0  0  0  0  0  0  0  0
    1.0308    0.9457   -5.5999 O   0  0  0  0  0  0  0  0  0  0  0  0
    0.3598   -1.7361   -5.0913 C   0  0  0  0  0  0  0  0  0  0  0  0
   -1.1558   -1.8876   -4.9648 C   0  0  0  0  0  0  0  0  0  0  0  0
   -1.5768   -2.1453   -3.5066 C   0  0  0  0  0  0  0  0  0  0  0  0
   -2.1650   -2.2656   -0.7586 O   0  0  0  0  0  0  0  0  0  0  0  0
    1.2305    1.5816    2.8436 C   0  0  0  0  0  0  0  0  0  0  0  0
    1.3734    2.4038    3.9530 C   0  0  0  0  0  0  0  0  0  0  0  0
    1.3332    3.8011    3.8377 C   0  0  0  0  0  0  0  0  0  0  0  0
    1.1470    4.3665    2.5661 C   0  0  0  0  0  0  0  0  0  0  0  0
    1.0469    3.5926    1.4046 C   0  0  0  0  0  0  0  0  0  0  0  0
    1.0718    2.1893    1.5744 C   0  0  0  0  0  0  0  0  0  0  0  0
    7.1285    2.3464    1.1474 F   0  0  0  0  0  0  0  0  0  0  0  0
    4.5688    0.3259    6.0183 H   0  0  0  0  0  0  0  0  0  0  0  0
    5.6821   -0.2720    4.7732 H   0  0  0  0  0  0  0  0  0  0  0  0
    4.1341    0.3589    4.2872 H   0  0  0  0  0  0  0  0  0  0  0  0
    4.7281   -2.1850    5.8007 H   0  0  0  0  0  0  0  0  0  0  0  0
    5.2727   -3.7828    4.2958 H   0  0  0  0  0  0  0  0  0  0  0  0
    5.0073   -3.4232    2.5760 H   0  0  0  0  0  0  0  0  0  0  0  0
    6.0253   -2.3385    3.5441 H   0  0  0  0  0  0  0  0  0  0  0  0
    1.5067   -3.7618    8.1534 H   0  0  0  0  0  0  0  0  0  0  0  0
   -0.5244   -2.3334    7.8989 H   0  0  0  0  0  0  0  0  0  0  0  0
   -0.4620   -0.4799    6.2630 H   0  0  0  0  0  0  0  0  0  0  0  0
    2.3143    1.2805    6.9665 H   0  0  0  0  0  0  0  0  0  0  0  0
    2.5571    2.8850    6.2963 H   0  0  0  0  0  0  0  0  0  0  0  0
    0.8475    2.8572    8.1435 H   0  0  0  0  0  0  0  0  0  0  0  0
    0.1593    3.4432    6.6207 H   0  0  0  0  0  0  0  0  0  0  0  0
   -0.1845    1.7971    7.1599 H   0  0  0  0  0  0  0  0  0  0  0  0
    1.6934   -0.7729    1.4397 H   0  0  0  0  0  0  0  0  0  0  0  0
    1.8032   -1.7889    2.8511 H   0  0  0  0  0  0  0  0  0  0  0  0
   -1.1541   -0.8932    3.9638 H   0  0  0  0  0  0  0  0  0  0  0  0
   -2.0202   -2.2115    3.1766 H   0  0  0  0  0  0  0  0  0  0  0  0
   -0.5213   -2.5584    4.0421 H   0  0  0  0  0  0  0  0  0  0  0  0
    0.5162   -3.6659    2.1650 H   0  0  0  0  0  0  0  0  0  0  0  0
   -0.9374   -3.4540    1.1842 H   0  0  0  0  0  0  0  0  0  0  0  0
    0.6440   -2.9135    0.5703 H   0  0  0  0  0  0  0  0  0  0  0  0
   -2.1148   -1.0065    1.2064 H   0  0  0  0  0  0  0  0  0  0  0  0
   -1.0594    0.3320    1.5242 H   0  0  0  0  0  0  0  0  0  0  0  0
   -1.3038   -0.1396   -2.7256 H   0  0  0  0  0  0  0  0  0  0  0  0
    1.1042   -0.7345   -2.0396 H   0  0  0  0  0  0  0  0  0  0  0  0
    0.8221    1.1832   -2.3794 H   0  0  0  0  0  0  0  0  0  0  0  0
    3.3213    2.1026   -3.7437 H   0  0  0  0  0  0  0  0  0  0  0  0
    5.2333    1.5950   -2.9190 H   0  0  0  0  0  0  0  0  0  0  0  0
    5.3089   -1.4021   -2.3174 H   0  0  0  0  0  0  0  0  0  0  0  0
    7.5642   -0.2521   -2.2670 H   0  0  0  0  0  0  0  0  0  0  0  0
    7.3987   -1.3449   -3.6388 H   0  0  0  0  0  0  0  0  0  0  0  0
    7.2459    0.4033   -3.8751 H   0  0  0  0  0  0  0  0  0  0  0  0
    3.7687   -1.0900   -4.1588 H   0  0  0  0  0  0  0  0  0  0  0  0
    4.8649    0.0488   -4.9657 H   0  0  0  0  0  0  0  0  0  0  0  0
    5.3025   -1.6600   -4.8096 H   0  0  0  0  0  0  0  0  0  0  0  0
    3.9216    2.6504    1.8400 H   0  0  0  0  0  0  0  0  0  0  0  0
    4.8946    1.2041    2.0595 H   0  0  0  0  0  0  0  0  0  0  0  0
    4.7857    2.4159    4.1546 H   0  0  0  0  0  0  0  0  0  0  0  0
    6.4513    2.4308    3.5815 H   0  0  0  0  0  0  0  0  0  0  0  0
    3.9502    8.4264    8.4119 H   0  0  0  0  0  0  0  0  0  0  0  0
    2.5395    7.8587    7.5589 H   0  0  0  0  0  0  0  0  0  0  0  0
    4.1152    7.0924    7.2651 H   0  0  0  0  0  0  0  0  0  0  0  0
    5.4822    9.8949    7.4178 H   0  0  0  0  0  0  0  0  0  0  0  0
    5.9571    8.6046    6.2859 H   0  0  0  0  0  0  0  0  0  0  0  0
    5.5099   10.2294    5.7066 H   0  0  0  0  0  0  0  0  0  0  0  0
    4.5854    9.9941    3.7841 H   0  0  0  0  0  0  0  0  0  0  0  0
    3.0808    9.4836    3.0453 H   0  0  0  0  0  0  0  0  0  0  0  0
    3.0442   10.6473    4.3765 H   0  0  0  0  0  0  0  0  0  0  0  0
    1.7764    7.2089    5.5072 H   0  0  0  0  0  0  0  0  0  0  0  0
    1.3274    8.9114    5.6749 H   0  0  0  0  0  0  0  0  0  0  0  0
    1.4691    8.1750    4.0737 H   0  0  0  0  0  0  0  0  0  0  0  0
    6.1449    5.9676    2.3836 H   0  0  0  0  0  0  0  0  0  0  0  0
    7.3104    4.6652    2.5875 H   0  0  0  0  0  0  0  0  0  0  0  0
    6.6521    4.7285    0.2518 H   0  0  0  0  0  0  0  0  0  0  0  0
    4.9441    4.7705    0.6875 H   0  0  0  0  0  0  0  0  0  0  0  0
    6.2787    0.2396    0.8805 H   0  0  0  0  0  0  0  0  0  0  0  0
    4.7709   -0.5072    0.2943 H   0  0  0  0  0  0  0  0  0  0  0  0
    6.3367   -0.8424   -0.4834 H   0  0  0  0  0  0  0  0  0  0  0  0
    1.3178    3.4089   -4.4115 H   0  0  0  0  0  0  0  0  0  0  0  0
   -0.2683    2.8272   -3.9100 H   0  0  0  0  0  0  0  0  0  0  0  0
   -0.2169    4.4850   -2.4287 H   0  0  0  0  0  0  0  0  0  0  0  0
   -0.0087    2.5840   -0.8814 H   0  0  0  0  0  0  0  0  0  0  0  0
    1.7953    2.7013   -0.9697 H   0  0  0  0  0  0  0  0  0  0  0  0
    1.7690    6.1179    0.6081 H   0  0  0  0  0  0  0  0  0  0  0  0
    2.8858    4.8850   -0.0335 H   0  0  0  0  0  0  0  0  0  0  0  0
    0.7508    6.4331   -1.6075 H   0  0  0  0  0  0  0  0  0  0  0  0
    2.5060    6.6317   -1.6988 H   0  0  0  0  0  0  0  0  0  0  0  0
    0.6365   -1.3971   -6.0960 H   0  0  0  0  0  0  0  0  0  0  0  0
    0.8631   -2.6923   -4.9068 H   0  0  0  0  0  0  0  0  0  0  0  0
   -1.6448   -0.9711   -5.3167 H   0  0  0  0  0  0  0  0  0  0  0  0
   -1.5037   -2.7078   -5.6011 H   0  0  0  0  0  0  0  0  0  0  0  0
   -1.2952   -3.1707   -3.2328 H   0  0  0  0  0  0  0  0  0  0  0  0
   -2.6684   -2.0862   -3.4282 H   0  0  0  0  0  0  0  0  0  0  0  0
    1.4293    4.4433    4.7084 H   0  0  0  0  0  0  0  0  0  0  0  0
    1.0726    5.4482    2.5128 H   0  0  0  0  0  0  0  0  0  0  0  0
    0.9947    1.5137    0.7316 H   0  0  0  0  0  0  0  0  0  0  0  0
  1  2  1  0
  2  3  1  0
  2  5  1  0
  3  4  1  0
  5  6  2  0
  5 10  1  0
  6  7  1  0
  7  8  2  0
  8  9  1  0
  9 10  2  0
 10 11  1  0
 11 12  1  0
 11 15  2  0
 12 13  1  0
 12 68  1  0
 13 14  1  0
 15 16  1  0
 15 67  1  0
 16 17  1  0
 17 18  1  0
 17 19  1  0
 17 20  1  0
 20 21  1  0
 21 22  1  0
 22 23  1  0
 22 66  2  0
 23 24  1  0
 23 65  1  0
 24 25  1  0
 25 26  1  0
 25 63  1  0
 26 27  1  0
 26 62  2  0
 27 28  1  0
 27 55  1  0
 28 29  1  0
 29 30  1  0
 29 54  2  0
 30 31  1  0
 30 34  1  0
 31 32  1  0
 31 33  1  0
 34 35  1  0
 34 53  1  0
 35 36  1  0
 35 52  2  0
 36 37  1  0
 36 51  1  0
 36 73  1  0
 37 38  1  0
 38 39  1  0
 39 40  1  0
 39 50  1  0
 40 41  1  0
 40 49  2  0
 42 43  1  0
 43 44  1  0
 43 47  1  0
 43 48  1  0
 44 45  1  0
 44 46  1  0
 50 51  1  0
 55 56  1  0
 56 57  1  0
 56 61  1  0
 57 58  1  0
 58 59  1  0
 58 71  1  0
 59 60  1  0
 60 61  1  0
 63 64  1  0
 64 65  1  0
 67 68  2  0
 67 72  1  0
 68 69  1  0
 69 70  2  0
 70 71  1  0
 71 72  2  0
 41 42  3  0
  1 74  1  0
  1 75  1  0
  1 76  1  0
  2 77  1  1
  4 78  1  0
  4 79  1  0
  4 80  1  0
  7 81  1  0
  8 82  1  0
  9 83  1  0
 13 84  1  0
 13 85  1  0
 14 86  1  0
 14 87  1  0
 14 88  1  0
 16 89  1  0
 16 90  1  0
 18 91  1  0
 18 92  1  0
 18 93  1  0
 19 94  1  0
 19 95  1  0
 19 96  1  0
 20 97  1  0
 20 98  1  0
 23 99  1  6
 24100  1  0
 27101  1  1
 28102  1  0
 30103  1  6
 31104  1  0
 32105  1  0
 32106  1  0
 32107  1  0
 33108  1  0
 33109  1  0
 33110  1  0
 37111  1  0
 37112  1  0
 38113  1  0
 38114  1  0
 45115  1  0
 45116  1  0
 45117  1  0
 46118  1  0
 46119  1  0
 46120  1  0
 47121  1  0
 47122  1  0
 47123  1  0
 48124  1  0
 48125  1  0
 48126  1  0
 50127  1  0
 50128  1  0
 51129  1  0
 51130  1  0
 53131  1  0
 53132  1  0
 53133  1  0
 55134  1  0
 55135  1  0
 56136  1  1
 57137  1  0
 57138  1  0
 59139  1  0
 59140  1  0
 60141  1  0
 60142  1  0
 63143  1  0
 63144  1  0
 64145  1  0
 64146  1  0
 65147  1  0
 65148  1  0
 69149  1  0
 70150  1  0
 72151  1  0
M  END
$$$$
