mol_bioactive_35
     RDKit          3D

151157  0  0  0  0  0  0  0  0999 V2000
    3.5378   -0.3424   -6.7334 C   0  0  0  0  0  0  0  0  0  0  0  0
    3.4245    1.1213   -7.1501 C   0  0  2  0  0  0  0  0  0  0  0  0
    3.3053    1.9381   -5.9775 O   0  0  0  0  0  0  0  0  0  0  0  0
    4.4602    2.7307   -5.7420 C   0  0  0  0  0  0  0  0  0  0  0  0
    2.3120    1.4095   -8.1496 C   0  0  0  0  0  0  0  0  0  0  0  0
    2.7664    1.9000   -9.3458 N   0  0  0  0  0  0  0  0  0  0  0  0
    1.8687    2.1707  -10.3148 C   0  0  0  0  0  0  0  0  0  0  0  0
    0.5125    1.9681  -10.1747 C   0  0  0  0  0  0  0  0  0  0  0  0
    0.0515    1.4661   -8.9647 C   0  0  0  0  0  0  0  0  0  0  0  0
    0.9440    1.1805   -7.9195 C   0  0  0  0  0  0  0  0  0  0  0  0
    0.3974    0.6095   -6.6828 C   0  0  0  0  0  0  0  0  0  0  0  0
    0.0588   -0.7302   -6.5535 N   0  0  0  0  0  0  0  0  0  0  0  0
    0.0958   -1.7278   -7.6139 C   0  0  0  0  0  0  0  0  0  0  0  0
   -1.2820   -1.9964   -8.1949 C   0  0  0  0  0  0  0  0  0  0  0  0
    0.1240    1.2221   -5.4605 C   0  0  0  0  0  0  0  0  0  0  0  0
    0.2474    2.6831   -5.0942 C   0  0  0  0  0  0  0  0  0  0  0  0
   -1.0345    3.5517   -5.2371 C   0  0  0  0  0  0  0  0  0  0  0  0
   -0.6786    4.9872   -4.7945 C   0  0  0  0  0  0  0  0  0  0  0  0
   -1.4804    3.6176   -6.7111 C   0  0  0  0  0  0  0  0  0  0  0  0
   -2.2360    3.0403   -4.4043 C   0  0  0  0  0  0  0  0  0  0  0  0
   -2.0658    3.2415   -2.9873 O   0  0  0  0  0  0  0  0  0  0  0  0
   -3.2409    3.1478   -2.2940 C   0  0  0  0  0  0  0  0  0  0  0  0
   -3.1441    3.5665   -0.8245 C   0  0  1  0  0  0  0  0  0  0  0  0
   -1.7722    3.9241   -0.4035 N   0  0  0  0  0  0  0  0  0  0  0  0
   -1.7481    4.3372    0.9621 N   0  0  0  0  0  0  0  0  0  0  0  0
   -0.9923    3.7517    1.9870 C   0  0  0  0  0  0  0  0  0  0  0  0
   -0.3009    2.3964    1.7022 C   0  0  1  0  0  0  0  0  0  0  0  0
    0.8286    2.2418    2.6151 N   0  0  0  0  0  0  0  0  0  0  0  0
    1.9714    2.9958    2.4219 C   0  0  0  0  0  0  0  0  0  0  0  0
    2.9757    2.9445    3.5963 C   0  0  2  0  0  0  0  0  0  0  0  0
    3.6535    4.3141    3.8560 C   0  0  0  0  0  0  0  0  0  0  0  0
    4.6281    4.2249    5.0382 C   0  0  0  0  0  0  0  0  0  0  0  0
    2.6050    5.3935    4.1673 C   0  0  0  0  0  0  0  0  0  0  0  0
    3.9175    1.8309    3.3103 N   0  0  0  0  0  0  0  0  0  0  0  0
    3.6264    0.5979    3.8975 C   0  0  0  0  0  0  0  0  0  0  0  0
    4.4408   -0.6544    3.5053 C   0  0  0  0  0  0  0  0  0  0  0  0
    4.2548   -1.7464    4.5658 C   0  0  0  0  0  0  0  0  0  0  0  0
    4.9607   -3.0298    4.1574 C   0  0  0  0  0  0  0  0  0  0  0  0
    4.5318   -3.4628    2.8312 N   0  0  0  0  0  0  0  0  0  0  0  0
    4.3666   -4.8018    2.4801 C   0  0  0  0  0  0  0  0  0  0  0  0
    4.3909   -5.7951    3.5291 C   0  0  0  0  0  0  0  0  0  0  0  0
    4.3772   -6.6013    4.4227 C   0  0  0  0  0  0  0  0  0  0  0  0
    4.3281   -7.5628    5.5559 C   0  0  0  0  0  0  0  0  0  0  0  0
    2.9681   -8.1547    5.6171 N   0  0  0  0  0  0  0  0  0  0  0  0
    2.6276   -8.9894    4.4580 C   0  0  0  0  0  0  0  0  0  0  0  0
    2.6638   -8.8930    6.8431 C   0  0  0  0  0  0  0  0  0  0  0  0
    4.6343   -6.7352    6.8301 C   0  0  0  0  0  0  0  0  0  0  0  0
    5.4562   -8.6002    5.3806 C   0  0  0  0  0  0  0  0  0  0  0  0
    4.1788   -5.1840    1.3305 O   0  0  0  0  0  0  0  0  0  0  0  0
    4.6597   -2.4741    1.7694 C   0  0  0  0  0  0  0  0  0  0  0  0
    3.9785   -1.1628    2.1375 C   0  0  0  0  0  0  0  0  0  0  0  0
    2.6839    0.4942    4.6915 O   0  0  0  0  0  0  0  0  0  0  0  0
    4.9092    2.0453    2.2525 C   0  0  0  0  0  0  0  0  0  0  0  0
    2.1987    3.5878    1.3667 O   0  0  0  0  0  0  0  0  0  0  0  0
   -1.3510    1.2854    1.9030 C   0  0  0  0  0  0  0  0  0  0  0  0
   -1.1166   -0.0349    1.1588 C   0  0  1  0  0  0  0  0  0  0  0  0
   -0.9220    0.1701   -0.3528 C   0  0  0  0  0  0  0  0  0  0  0  0
   -0.7629   -1.1261   -1.0408 N   0  0  0  0  0  0  0  0  0  0  0  0
    0.3277   -1.9320   -0.4229 C   0  0  0  0  0  0  0  0  0  0  0  0
    0.1146   -2.0351    1.0987 C   0  0  0  0  0  0  0  0  0  0  0  0
    0.0085   -0.7350    1.7154 O   0  0  0  0  0  0  0  0  0  0  0  0
   -0.9454    4.2413    3.1229 O   0  0  0  0  0  0  0  0  0  0  0  0
   -2.5257    5.5513    1.2266 C   0  0  0  0  0  0  0  0  0  0  0  0
   -3.9793    5.3175    0.8232 C   0  0  0  0  0  0  0  0  0  0  0  0
   -4.0691    4.7776   -0.6063 C   0  0  0  0  0  0  0  0  0  0  0  0
   -4.3071    2.7931   -2.7960 O   0  0  0  0  0  0  0  0  0  0  0  0
   -0.1839    0.1728   -4.5353 C   0  0  0  0  0  0  0  0  0  0  0  0
   -0.2407   -1.0247   -5.2367 C   0  0  0  0  0  0  0  0  0  0  0  0
   -0.5457   -2.2376   -4.6015 C   0  0  0  0  0  0  0  0  0  0  0  0
   -0.7314   -2.2271   -3.2113 C   0  0  0  0  0  0  0  0  0  0  0  0
   -0.6314   -1.0569   -2.4497 C   0  0  0  0  0  0  0  0  0  0  0  0
   -0.3997    0.1452   -3.1399 C   0  0  0  0  0  0  0  0  0  0  0  0
    5.7861   -0.3945    3.4513 F   0  0  0  0  0  0  0  0  0  0  0  0
    2.8260   -0.6042   -5.9459 H   0  0  0  0  0  0  0  0  0  0  0  0
    3.4094   -1.0214   -7.5820 H   0  0  0  0  0  0  0  0  0  0  0  0
    4.5309   -0.5248   -6.2992 H   0  0  0  0  0  0  0  0  0  0  0  0
    4.3672    1.3620   -7.6644 H   0  0  0  0  0  0  0  0  0  0  0  0
    4.2984    3.3145   -4.8312 H   0  0  0  0  0  0  0  0  0  0  0  0
    5.3386    2.0932   -5.5967 H   0  0  0  0  0  0  0  0  0  0  0  0
    4.6275    3.4220   -6.5740 H   0  0  0  0  0  0  0  0  0  0  0  0
    2.2861    2.5625  -11.2371 H   0  0  0  0  0  0  0  0  0  0  0  0
   -0.1707    2.1957  -10.9841 H   0  0  0  0  0  0  0  0  0  0  0  0
   -1.0149    1.2984   -8.8327 H   0  0  0  0  0  0  0  0  0  0  0  0
    0.7823   -1.3934   -8.3982 H   0  0  0  0  0  0  0  0  0  0  0  0
    0.5252   -2.6458   -7.1987 H   0  0  0  0  0  0  0  0  0  0  0  0
   -1.9684   -2.3803   -7.4330 H   0  0  0  0  0  0  0  0  0  0  0  0
   -1.7257   -1.0849   -8.6086 H   0  0  0  0  0  0  0  0  0  0  0  0
   -1.2182   -2.7361   -8.9984 H   0  0  0  0  0  0  0  0  0  0  0  0
    0.6161    2.7538   -4.0616 H   0  0  0  0  0  0  0  0  0  0  0  0
    1.0377    3.1300   -5.7111 H   0  0  0  0  0  0  0  0  0  0  0  0
   -0.3201    5.0126   -3.7594 H   0  0  0  0  0  0  0  0  0  0  0  0
    0.1108    5.4104   -5.4261 H   0  0  0  0  0  0  0  0  0  0  0  0
   -1.5485    5.6495   -4.8627 H   0  0  0  0  0  0  0  0  0  0  0  0
   -2.2789    4.3568   -6.8489 H   0  0  0  0  0  0  0  0  0  0  0  0
   -0.6517    3.9112   -7.3652 H   0  0  0  0  0  0  0  0  0  0  0  0
   -1.8758    2.6551   -7.0506 H   0  0  0  0  0  0  0  0  0  0  0  0
   -3.1267    3.5981   -4.7278 H   0  0  0  0  0  0  0  0  0  0  0  0
   -2.4260    1.9778   -4.5928 H   0  0  0  0  0  0  0  0  0  0  0  0
   -3.4836    2.7087   -0.2315 H   0  0  0  0  0  0  0  0  0  0  0  0
   -1.0996    3.1993   -0.6383 H   0  0  0  0  0  0  0  0  0  0  0  0
    0.1122    2.4206    0.6952 H   0  0  0  0  0  0  0  0  0  0  0  0
    0.6321    1.9402    3.5644 H   0  0  0  0  0  0  0  0  0  0  0  0
    2.4046    2.7107    4.5038 H   0  0  0  0  0  0  0  0  0  0  0  0
    4.2072    4.6406    2.9678 H   0  0  0  0  0  0  0  0  0  0  0  0
    4.1137    3.9038    5.9499 H   0  0  0  0  0  0  0  0  0  0  0  0
    5.4377    3.5159    4.8407 H   0  0  0  0  0  0  0  0  0  0  0  0
    5.0874    5.1990    5.2364 H   0  0  0  0  0  0  0  0  0  0  0  0
    1.9710    5.0988    5.0101 H   0  0  0  0  0  0  0  0  0  0  0  0
    3.0877    6.3418    4.4242 H   0  0  0  0  0  0  0  0  0  0  0  0
    1.9574    5.5807    3.3047 H   0  0  0  0  0  0  0  0  0  0  0  0
    4.6598   -1.4056    5.5266 H   0  0  0  0  0  0  0  0  0  0  0  0
    3.1894   -1.9612    4.7151 H   0  0  0  0  0  0  0  0  0  0  0  0
    6.0475   -2.8834    4.1186 H   0  0  0  0  0  0  0  0  0  0  0  0
    4.7644   -3.7951    4.9131 H   0  0  0  0  0  0  0  0  0  0  0  0
    3.1723   -9.9405    4.4520 H   0  0  0  0  0  0  0  0  0  0  0  0
    1.5541   -9.2179    4.4636 H   0  0  0  0  0  0  0  0  0  0  0  0
    2.8176   -8.4785    3.5073 H   0  0  0  0  0  0  0  0  0  0  0  0
    2.7158   -8.2503    7.7280 H   0  0  0  0  0  0  0  0  0  0  0  0
    1.6314   -9.2650    6.8198 H   0  0  0  0  0  0  0  0  0  0  0  0
    3.3259   -9.7531    6.9933 H   0  0  0  0  0  0  0  0  0  0  0  0
    4.7550   -7.3691    7.7164 H   0  0  0  0  0  0  0  0  0  0  0  0
    5.5649   -6.1628    6.7207 H   0  0  0  0  0  0  0  0  0  0  0  0
    3.8372   -6.0064    7.0353 H   0  0  0  0  0  0  0  0  0  0  0  0
    5.4817   -9.3152    6.2095 H   0  0  0  0  0  0  0  0  0  0  0  0
    5.3593   -9.1632    4.4464 H   0  0  0  0  0  0  0  0  0  0  0  0
    6.4353   -8.1071    5.3441 H   0  0  0  0  0  0  0  0  0  0  0  0
    5.7311   -2.3144    1.5960 H   0  0  0  0  0  0  0  0  0  0  0  0
    4.2325   -2.8528    0.8325 H   0  0  0  0  0  0  0  0  0  0  0  0
    2.8919   -1.3114    2.1573 H   0  0  0  0  0  0  0  0  0  0  0  0
    4.1808   -0.4333    1.3467 H   0  0  0  0  0  0  0  0  0  0  0  0
    5.5476    2.8924    2.5161 H   0  0  0  0  0  0  0  0  0  0  0  0
    5.5613    1.1903    2.0914 H   0  0  0  0  0  0  0  0  0  0  0  0
    4.3977    2.2533    1.3098 H   0  0  0  0  0  0  0  0  0  0  0  0
   -1.4364    1.0688    2.9767 H   0  0  0  0  0  0  0  0  0  0  0  0
   -2.3358    1.6549    1.5920 H   0  0  0  0  0  0  0  0  0  0  0  0
   -2.0070   -0.6575    1.3258 H   0  0  0  0  0  0  0  0  0  0  0  0
   -1.7883    0.7060   -0.7557 H   0  0  0  0  0  0  0  0  0  0  0  0
   -0.0128    0.7579   -0.5146 H   0  0  0  0  0  0  0  0  0  0  0  0
    0.3657   -2.9454   -0.8353 H   0  0  0  0  0  0  0  0  0  0  0  0
    1.2902   -1.4391   -0.6138 H   0  0  0  0  0  0  0  0  0  0  0  0
   -0.7904   -2.6120    1.3272 H   0  0  0  0  0  0  0  0  0  0  0  0
    0.9607   -2.5550    1.5593 H   0  0  0  0  0  0  0  0  0  0  0  0
   -2.4742    5.8363    2.2810 H   0  0  0  0  0  0  0  0  0  0  0  0
   -2.0839    6.3670    0.6412 H   0  0  0  0  0  0  0  0  0  0  0  0
   -4.4327    4.5885    1.5069 H   0  0  0  0  0  0  0  0  0  0  0  0
   -4.5508    6.2469    0.9117 H   0  0  0  0  0  0  0  0  0  0  0  0
   -3.8094    5.5775   -1.3129 H   0  0  0  0  0  0  0  0  0  0  0  0
   -5.1086    4.5016   -0.8212 H   0  0  0  0  0  0  0  0  0  0  0  0
   -0.6159   -3.1707   -5.1508 H   0  0  0  0  0  0  0  0  0  0  0  0
   -0.9659   -3.1671   -2.7187 H   0  0  0  0  0  0  0  0  0  0  0  0
   -0.3182    1.0902   -2.6212 H   0  0  0  0  0  0  0  0  0  0  0  0
  1  2  1  0
  2  3  1  0
  2  5  1  0
  3  4  1  0
  5  6  2  0
  5 10  1  0
  6  7  1  0
  7  8  2  0
  8  9  1  0
  9 10  2  0
 10 11  1  0
 11 12  1  0
 11 15  2  0
 12 13  1  0
 12 68  1  0
 13 14  1  0
 15 16  1  0
 15 67  1  0
 16 17  1  0
 17 18  1  0
 17 19  1  0
 17 20  1  0
 20 21  1  0
 21 22  1  0
 22 23  1  0
 22 66  2  0
 23 24  1  0
 23 65  1  0
 24 25  1  0
 25 26  1  0
 25 63  1  0
 26 27  1  0
 26 62  2  0
 27 28  1  0
 27 55  1  0
 28 29  1  0
 29 30  1  0
 29 54  2  0
 30 31  1  0
 30 34  1  0
 31 32  1  0
 31 33  1  0
 34 35  1  0
 34 53  1  0
 35 36  1  0
 35 52  2  0
 36 37  1  0
 36 51  1  0
 36 73  1  0
 37 38  1  0
 38 39  1  0
 39 40  1  0
 39 50  1  0
 40 41  1  0
 40 49  2  0
 42 43  1  0
 43 44  1  0
 43 47  1  0
 43 48  1  0
 44 45  1  0
 44 46  1  0
 50 51  1  0
 55 56  1  0
 56 57  1  0
 56 61  1  0
 57 58  1  0
 58 59  1  0
 58 71  1  0
 59 60  1  0
 60 61  1  0
 63 64  1  0
 64 65  1  0
 67 68  2  0
 67 72  1  0
 68 69  1  0
 69 70  2  0
 70 71  1  0
 71 72  2  0
 41 42  3  0
  1 74  1  0
  1 75  1  0
  1 76  1  0
  2 77  1  6
  4 78  1  0
  4 79  1  0
  4 80  1  0
  7 81  1  0
  8 82  1  0
  9 83  1  0
 13 84  1  0
 13 85  1  0
 14 86  1  0
 14 87  1  0
 14 88  1  0
 16 89  1  0
 16 90  1  0
 18 91  1  0
 18 92  1  0
 18 93  1  0
 19 94  1  0
 19 95  1  0
 19 96  1  0
 20 97  1  0
 20 98  1  0
 23 99  1  1
 24100  1  0
 27101  1  6
 28102  1  0
 30103  1  1
 31104  1  0
 32105  1  0
 32106  1  0
 32107  1  0
 33108  1  0
 33109  1  0
 33110  1  0
 37111  1  0
 37112  1  0
 38113  1  0
 38114  1  0
 45115  1  0
 45116  1  0
 45117  1  0
 46118  1  0
 46119  1  0
 46120  1  0
 47121  1  0
 47122  1  0
 47123  1  0
 48124  1  0
 48125  1  0
 48126  1  0
 50127  1  0
 50128  1  0
 51129  1  0
 51130  1  0
 53131  1  0
 53132  1  0
 53133  1  0
 55134  1  0
 55135  1  0
 56136  1  6
 57137  1  0
 57138  1  0
 59139  1  0
 59140  1  0
 60141  1  0
 60142  1  0
 63143  1  0
 63144  1  0
 64145  1  0
 64146  1  0
 65147  1  0
 65148  1  0
 69149  1  0
 70150  1  0
 72151  1  0
M  END
$$$$
