mol_bioactive_2
     RDKit          3D

151157  0  0  0  0  0  0  0  0999 V2000
   -1.0355   -5.1671   -2.1437 C   0  0  0  0  0  0  0  0  0  0  0  0
   -0.9384   -4.0805   -3.2128 C   0  0  2  0  0  0  0  0  0  0  0  0
   -2.1480   -4.1644   -3.9923 O   0  0  0  0  0  0  0  0  0  0  0  0
   -2.3208   -3.0644   -4.8718 C   0  0  0  0  0  0  0  0  0  0  0  0
    0.3241   -4.2804   -4.0504 C   0  0  0  0  0  0  0  0  0  0  0  0
    0.3689   -5.4136   -4.8108 N   0  0  0  0  0  0  0  0  0  0  0  0
    1.4560   -5.6234   -5.5813 C   0  0  0  0  0  0  0  0  0  0  0  0
    2.5265   -4.7529   -5.6483 C   0  0  0  0  0  0  0  0  0  0  0  0
    2.4799   -3.5980   -4.8751 C   0  0  0  0  0  0  0  0  0  0  0  0
    1.3748   -3.3443   -4.0544 C   0  0  0  0  0  0  0  0  0  0  0  0
    1.3409   -2.1129   -3.2614 C   0  0  0  0  0  0  0  0  0  0  0  0
    0.9334   -0.8898   -3.7710 N   0  0  0  0  0  0  0  0  0  0  0  0
    0.6391   -0.5983   -5.1693 C   0  0  0  0  0  0  0  0  0  0  0  0
    1.7925    0.1044   -5.8628 C   0  0  0  0  0  0  0  0  0  0  0  0
    1.6176   -1.9281   -1.9069 C   0  0  0  0  0  0  0  0  0  0  0  0
    2.1544   -2.9330   -0.9130 C   0  0  0  0  0  0  0  0  0  0  0  0
    3.6903   -2.9077   -0.6563 C   0  0  0  0  0  0  0  0  0  0  0  0
    4.0221   -4.0657    0.3125 C   0  0  0  0  0  0  0  0  0  0  0  0
    4.4616   -3.1597   -1.9670 C   0  0  0  0  0  0  0  0  0  0  0  0
    4.2005   -1.5733   -0.0488 C   0  0  0  0  0  0  0  0  0  0  0  0
    3.8196   -1.4068    1.3382 O   0  0  0  0  0  0  0  0  0  0  0  0
    4.8468   -1.0980    2.1910 C   0  0  0  0  0  0  0  0  0  0  0  0
    4.3953   -0.8847    3.6453 C   0  0  1  0  0  0  0  0  0  0  0  0
    3.1119   -1.5557    3.9491 N   0  0  0  0  0  0  0  0  0  0  0  0
    2.7388   -1.3535    5.3154 N   0  0  0  0  0  0  0  0  0  0  0  0
    1.4769   -0.9287    5.7625 C   0  0  0  0  0  0  0  0  0  0  0  0
    0.5401   -0.2353    4.7461 C   0  0  1  0  0  0  0  0  0  0  0  0
   -0.8426   -0.4148    5.1717 N   0  0  0  0  0  0  0  0  0  0  0  0
   -1.4268   -1.6627    5.0267 C   0  0  0  0  0  0  0  0  0  0  0  0
   -2.7793   -1.8345    5.7606 C   0  0  2  0  0  0  0  0  0  0  0  0
   -2.9470   -3.2680    6.3267 C   0  0  0  0  0  0  0  0  0  0  0  0
   -4.3338   -3.4629    6.9522 C   0  0  0  0  0  0  0  0  0  0  0  0
   -1.8803   -3.5575    7.3924 C   0  0  0  0  0  0  0  0  0  0  0  0
   -3.8394   -1.4147    4.8083 N   0  0  0  0  0  0  0  0  0  0  0  0
   -4.2720   -0.0871    4.9032 C   0  0  0  0  0  0  0  0  0  0  0  0
   -5.1743    0.5170    3.7972 C   0  0  0  0  0  0  0  0  0  0  0  0
   -4.3521    0.7690    2.5292 C   0  0  0  0  0  0  0  0  0  0  0  0
   -5.1674    1.4946    1.4702 C   0  0  0  0  0  0  0  0  0  0  0  0
   -5.7655    2.7069    2.0040 N   0  0  0  0  0  0  0  0  0  0  0  0
   -5.7639    3.8556    1.2198 C   0  0  0  0  0  0  0  0  0  0  0  0
   -6.4826    5.0184    1.6920 C   0  0  0  0  0  0  0  0  0  0  0  0
   -7.0444    6.0065    2.0938 C   0  0  0  0  0  0  0  0  0  0  0  0
   -7.7249    7.2162    2.6152 C   0  0  0  0  0  0  0  0  0  0  0  0
   -6.8504    8.4222    2.5712 N   0  0  0  0  0  0  0  0  0  0  0  0
   -5.6546    8.3273    3.4171 C   0  0  0  0  0  0  0  0  0  0  0  0
   -6.4550    8.8265    1.2168 C   0  0  0  0  0  0  0  0  0  0  0  0
   -8.1797    6.9254    4.0667 C   0  0  0  0  0  0  0  0  0  0  0  0
   -9.0177    7.4527    1.7975 C   0  0  0  0  0  0  0  0  0  0  0  0
   -5.1614    3.9517    0.1563 O   0  0  0  0  0  0  0  0  0  0  0  0
   -6.5849    2.5297    3.1995 C   0  0  0  0  0  0  0  0  0  0  0  0
   -5.7944    1.8323    4.2951 C   0  0  0  0  0  0  0  0  0  0  0  0
   -3.8968    0.6232    5.8443 O   0  0  0  0  0  0  0  0  0  0  0  0
   -4.0742   -2.2708    3.6461 C   0  0  0  0  0  0  0  0  0  0  0  0
   -0.9464   -2.5280    4.2958 O   0  0  0  0  0  0  0  0  0  0  0  0
    0.9466    1.2515    4.6713 C   0  0  0  0  0  0  0  0  0  0  0  0
    0.4762    2.0436    3.4401 C   0  0  1  0  0  0  0  0  0  0  0  0
    0.7074    1.2727    2.1367 C   0  0  0  0  0  0  0  0  0  0  0  0
    0.3004    2.0555    0.9494 N   0  0  0  0  0  0  0  0  0  0  0  0
   -1.0853    2.5846    1.0990 C   0  0  0  0  0  0  0  0  0  0  0  0
   -1.2716    3.2673    2.4689 C   0  0  0  0  0  0  0  0  0  0  0  0
   -0.9090    2.4016    3.5641 O   0  0  0  0  0  0  0  0  0  0  0  0
    1.1424   -1.0085    6.9519 O   0  0  0  0  0  0  0  0  0  0  0  0
    3.6817   -1.9338    6.2775 C   0  0  0  0  0  0  0  0  0  0  0  0
    5.0655   -1.3318    6.0604 C   0  0  0  0  0  0  0  0  0  0  0  0
    5.4806   -1.4315    4.5913 C   0  0  0  0  0  0  0  0  0  0  0  0
    6.0130   -0.9429    1.8411 O   0  0  0  0  0  0  0  0  0  0  0  0
    1.1633   -0.6120   -1.5798 C   0  0  0  0  0  0  0  0  0  0  0  0
    0.7652    0.0216   -2.7485 C   0  0  0  0  0  0  0  0  0  0  0  0
    0.2986    1.3439   -2.7386 C   0  0  0  0  0  0  0  0  0  0  0  0
    0.1806    2.0004   -1.5013 C   0  0  0  0  0  0  0  0  0  0  0  0
    0.4995    1.3821   -0.2872 C   0  0  0  0  0  0  0  0  0  0  0  0
    1.0373    0.0846   -0.3609 C   0  0  0  0  0  0  0  0  0  0  0  0
   -6.2187   -0.3123    3.4821 F   0  0  0  0  0  0  0  0  0  0  0  0
   -0.1607   -5.1709   -1.4853 H   0  0  0  0  0  0  0  0  0  0  0  0
   -1.9301   -5.0158   -1.5291 H   0  0  0  0  0  0  0  0  0  0  0  0
   -1.1320   -6.1644   -2.5904 H   0  0  0  0  0  0  0  0  0  0  0  0
   -0.9453   -3.1130   -2.7009 H   0  0  0  0  0  0  0  0  0  0  0  0
   -2.2841   -2.1170   -4.3236 H   0  0  0  0  0  0  0  0  0  0  0  0
   -1.5658   -3.0741   -5.6628 H   0  0  0  0  0  0  0  0  0  0  0  0
   -3.3042   -3.1508   -5.3403 H   0  0  0  0  0  0  0  0  0  0  0  0
    1.4391   -6.5395   -6.1652 H   0  0  0  0  0  0  0  0  0  0  0  0
    3.3770   -4.9684   -6.2844 H   0  0  0  0  0  0  0  0  0  0  0  0
    3.3116   -2.8980   -4.9107 H   0  0  0  0  0  0  0  0  0  0  0  0
    0.4001   -1.5309   -5.6858 H   0  0  0  0  0  0  0  0  0  0  0  0
   -0.2661    0.0168   -5.2018 H   0  0  0  0  0  0  0  0  0  0  0  0
    2.0197    1.0654   -5.3892 H   0  0  0  0  0  0  0  0  0  0  0  0
    2.7033   -0.5026   -5.8322 H   0  0  0  0  0  0  0  0  0  0  0  0
    1.5457    0.2934   -6.9125 H   0  0  0  0  0  0  0  0  0  0  0  0
    1.6264   -2.8009    0.0402 H   0  0  0  0  0  0  0  0  0  0  0  0
    1.8736   -3.9375   -1.2557 H   0  0  0  0  0  0  0  0  0  0  0  0
    3.4472   -3.9916    1.2413 H   0  0  0  0  0  0  0  0  0  0  0  0
    3.7925   -5.0366   -0.1405 H   0  0  0  0  0  0  0  0  0  0  0  0
    5.0861   -4.0678    0.5756 H   0  0  0  0  0  0  0  0  0  0  0  0
    5.5366   -3.2668   -1.7774 H   0  0  0  0  0  0  0  0  0  0  0  0
    4.1286   -4.0826   -2.4522 H   0  0  0  0  0  0  0  0  0  0  0  0
    4.3428   -2.3297   -2.6716 H   0  0  0  0  0  0  0  0  0  0  0  0
    5.2891   -1.5373   -0.1679 H   0  0  0  0  0  0  0  0  0  0  0  0
    3.8185   -0.7106   -0.6009 H   0  0  0  0  0  0  0  0  0  0  0  0
    4.2747    0.1980    3.7811 H   0  0  0  0  0  0  0  0  0  0  0  0
    2.4009   -1.2856    3.2717 H   0  0  0  0  0  0  0  0  0  0  0  0
    0.6417   -0.7434    3.7896 H   0  0  0  0  0  0  0  0  0  0  0  0
   -1.1783    0.1616    5.9391 H   0  0  0  0  0  0  0  0  0  0  0  0
   -2.7734   -1.1568    6.6238 H   0  0  0  0  0  0  0  0  0  0  0  0
   -2.8191   -4.0138    5.5319 H   0  0  0  0  0  0  0  0  0  0  0  0
   -4.5205   -2.7247    7.7398 H   0  0  0  0  0  0  0  0  0  0  0  0
   -5.1286   -3.3700    6.2065 H   0  0  0  0  0  0  0  0  0  0  0  0
   -4.4217   -4.4601    7.3969 H   0  0  0  0  0  0  0  0  0  0  0  0
   -1.9316   -2.8334    8.2131 H   0  0  0  0  0  0  0  0  0  0  0  0
   -2.0190   -4.5574    7.8182 H   0  0  0  0  0  0  0  0  0  0  0  0
   -0.8723   -3.5208    6.9705 H   0  0  0  0  0  0  0  0  0  0  0  0
   -3.4701    1.3641    2.7867 H   0  0  0  0  0  0  0  0  0  0  0  0
   -3.9876   -0.1618    2.0891 H   0  0  0  0  0  0  0  0  0  0  0  0
   -4.5279    1.7180    0.6105 H   0  0  0  0  0  0  0  0  0  0  0  0
   -5.9836    0.8588    1.1065 H   0  0  0  0  0  0  0  0  0  0  0  0
   -5.9151    8.2317    4.4742 H   0  0  0  0  0  0  0  0  0  0  0  0
   -4.9992    7.4960    3.1348 H   0  0  0  0  0  0  0  0  0  0  0  0
   -5.0648    9.2505    3.3517 H   0  0  0  0  0  0  0  0  0  0  0  0
   -5.8331    9.7293    1.2539 H   0  0  0  0  0  0  0  0  0  0  0  0
   -5.8859    8.0513    0.6899 H   0  0  0  0  0  0  0  0  0  0  0  0
   -7.3223    9.1047    0.6077 H   0  0  0  0  0  0  0  0  0  0  0  0
   -7.3480    6.6171    4.7128 H   0  0  0  0  0  0  0  0  0  0  0  0
   -8.6581    7.8024    4.5157 H   0  0  0  0  0  0  0  0  0  0  0  0
   -8.9051    6.1016    4.0953 H   0  0  0  0  0  0  0  0  0  0  0  0
   -9.5330    8.3629    2.1266 H   0  0  0  0  0  0  0  0  0  0  0  0
   -8.8261    7.5381    0.7214 H   0  0  0  0  0  0  0  0  0  0  0  0
   -9.7194    6.6171    1.9142 H   0  0  0  0  0  0  0  0  0  0  0  0
   -6.9541    3.4854    3.5784 H   0  0  0  0  0  0  0  0  0  0  0  0
   -7.4606    1.9368    2.9114 H   0  0  0  0  0  0  0  0  0  0  0  0
   -6.4586    1.6328    5.1438 H   0  0  0  0  0  0  0  0  0  0  0  0
   -5.0090    2.5135    4.6487 H   0  0  0  0  0  0  0  0  0  0  0  0
   -4.1308   -3.3181    3.9436 H   0  0  0  0  0  0  0  0  0  0  0  0
   -5.0077   -2.0309    3.1416 H   0  0  0  0  0  0  0  0  0  0  0  0
   -3.2516   -2.1419    2.9388 H   0  0  0  0  0  0  0  0  0  0  0  0
    0.6010    1.7666    5.5780 H   0  0  0  0  0  0  0  0  0  0  0  0
    2.0434    1.3122    4.6845 H   0  0  0  0  0  0  0  0  0  0  0  0
    1.0570    2.9766    3.4201 H   0  0  0  0  0  0  0  0  0  0  0  0
    1.7720    1.0169    2.0773 H   0  0  0  0  0  0  0  0  0  0  0  0
    0.0975    0.3621    2.1553 H   0  0  0  0  0  0  0  0  0  0  0  0
   -1.3252    3.3174    0.3238 H   0  0  0  0  0  0  0  0  0  0  0  0
   -1.7917    1.7504    1.0202 H   0  0  0  0  0  0  0  0  0  0  0  0
   -0.6757    4.1875    2.5311 H   0  0  0  0  0  0  0  0  0  0  0  0
   -2.3213    3.5474    2.6036 H   0  0  0  0  0  0  0  0  0  0  0  0
    3.3588   -1.7523    7.3066 H   0  0  0  0  0  0  0  0  0  0  0  0
    3.6938   -3.0191    6.1208 H   0  0  0  0  0  0  0  0  0  0  0  0
    5.0498   -0.2739    6.3513 H   0  0  0  0  0  0  0  0  0  0  0  0
    5.8030   -1.8345    6.6960 H   0  0  0  0  0  0  0  0  0  0  0  0
    5.6943   -2.4812    4.3468 H   0  0  0  0  0  0  0  0  0  0  0  0
    6.4201   -0.8842    4.4473 H   0  0  0  0  0  0  0  0  0  0  0  0
    0.0153    1.8579   -3.6513 H   0  0  0  0  0  0  0  0  0  0  0  0
   -0.1717    3.0296   -1.5103 H   0  0  0  0  0  0  0  0  0  0  0  0
    1.3350   -0.4606    0.5251 H   0  0  0  0  0  0  0  0  0  0  0  0
  1  2  1  0
  2  3  1  0
  2  5  1  0
  3  4  1  0
  5  6  2  0
  5 10  1  0
  6  7  1  0
  7  8  2  0
  8  9  1  0
  9 10  2  0
 10 11  1  0
 11 12  1  0
 11 15  2  0
 12 13  1  0
 12 68  1  0
 13 14  1  0
 15 16  1  0
 15 67  1  0
 16 17  1  0
 17 18  1  0
 17 19  1  0
 17 20  1  0
 20 21  1  0
 21 22  1  0
 22 23  1  0
 22 66  2  0
 23 24  1  0
 23 65  1  0
 24 25  1  0
 25 26  1  0
 25 63  1  0
 26 27  1  0
 26 62  2  0
 27 28  1  0
 27 55  1  0
 28 29  1  0
 29 30  1  0
 29 54  2  0
 30 31  1  0
 30 34  1  0
 31 32  1  0
 31 33  1  0
 34 35  1  0
 34 53  1  0
 35 36  1  0
 35 52  2  0
 36 37  1  0
 36 51  1  0
 36 73  1  0
 37 38  1  0
 38 39  1  0
 39 40  1  0
 39 50  1  0
 40 41  1  0
 40 49  2  0
 42 43  1  0
 43 44  1  0
 43 47  1  0
 43 48  1  0
 44 45  1  0
 44 46  1  0
 50 51  1  0
 55 56  1  0
 56 57  1  0
 56 61  1  0
 57 58  1  0
 58 59  1  0
 58 71  1  0
 59 60  1  0
 60 61  1  0
 63 64  1  0
 64 65  1  0
 67 68  2  0
 67 72  1  0
 68 69  1  0
 69 70  2  0
 70 71  1  0
 71 72  2  0
 41 42  3  0
  1 74  1  0
  1 75  1  0
  1 76  1  0
  2 77  1  1
  4 78  1  0
  4 79  1  0
  4 80  1  0
  7 81  1  0
  8 82  1  0
  9 83  1  0
 13 84  1  0
 13 85  1  0
 14 86  1  0
 14 87  1  0
 14 88  1  0
 16 89  1  0
 16 90  1  0
 18 91  1  0
 18 92  1  0
 18 93  1  0
 19 94  1  0
 19 95  1  0
 19 96  1  0
 20 97  1  0
 20 98  1  0
 23 99  1  1
 24100  1  0
 27101  1  6
 28102  1  0
 30103  1  1
 31104  1  0
 32105  1  0
 32106  1  0
 32107  1  0
 33108  1  0
 33109  1  0
 33110  1  0
 37111  1  0
 37112  1  0
 38113  1  0
 38114  1  0
 45115  1  0
 45116  1  0
 45117  1  0
 46118  1  0
 46119  1  0
 46120  1  0
 47121  1  0
 47122  1  0
 47123  1  0
 48124  1  0
 48125  1  0
 48126  1  0
 50127  1  0
 50128  1  0
 51129  1  0
 51130  1  0
 53131  1  0
 53132  1  0
 53133  1  0
 55134  1  0
 55135  1  0
 56136  1  6
 57137  1  0
 57138  1  0
 59139  1  0
 59140  1  0
 60141  1  0
 60142  1  0
 63143  1  0
 63144  1  0
 64145  1  0
 64146  1  0
 65147  1  0
 65148  1  0
 69149  1  0
 70150  1  0
 72151  1  0
M  END
$$$$
