mol_bioactive_22
     RDKit          3D

151157  0  0  0  0  0  0  0  0999 V2000
   -1.6408   -4.0120   -4.2569 C   0  0  0  0  0  0  0  0  0  0  0  0
   -0.8250   -2.9175   -4.9403 C   0  0  2  0  0  0  0  0  0  0  0  0
    0.0333   -2.2356   -4.0188 O   0  0  0  0  0  0  0  0  0  0  0  0
    1.1878   -2.9759   -3.6586 C   0  0  0  0  0  0  0  0  0  0  0  0
   -1.7242   -1.9489   -5.7014 C   0  0  0  0  0  0  0  0  0  0  0  0
   -1.6959   -2.1267   -7.0605 N   0  0  0  0  0  0  0  0  0  0  0  0
   -2.4887   -1.3521   -7.8281 C   0  0  0  0  0  0  0  0  0  0  0  0
   -3.3438   -0.3973   -7.3212 C   0  0  0  0  0  0  0  0  0  0  0  0
   -3.3811   -0.2245   -5.9437 C   0  0  0  0  0  0  0  0  0  0  0  0
   -2.5655   -0.9949   -5.0996 C   0  0  0  0  0  0  0  0  0  0  0  0
   -2.6670   -0.7586   -3.6524 C   0  0  0  0  0  0  0  0  0  0  0  0
   -3.6830   -1.2816   -2.8640 N   0  0  0  0  0  0  0  0  0  0  0  0
   -4.7820   -2.1191   -3.3299 C   0  0  0  0  0  0  0  0  0  0  0  0
   -6.0631   -1.3299   -3.5417 C   0  0  0  0  0  0  0  0  0  0  0  0
   -1.8534    0.0145   -2.8229 C   0  0  0  0  0  0  0  0  0  0  0  0
   -0.6189    0.8052   -3.2067 C   0  0  0  0  0  0  0  0  0  0  0  0
   -0.7926    2.3294   -3.4829 C   0  0  0  0  0  0  0  0  0  0  0  0
   -1.8498    2.5723   -4.5758 C   0  0  0  0  0  0  0  0  0  0  0  0
    0.5574    2.8564   -4.0199 C   0  0  0  0  0  0  0  0  0  0  0  0
   -1.2077    3.1401   -2.2285 C   0  0  0  0  0  0  0  0  0  0  0  0
   -0.1431    3.3006   -1.2621 O   0  0  0  0  0  0  0  0  0  0  0  0
    0.3721    4.5691   -1.1571 C   0  0  0  0  0  0  0  0  0  0  0  0
    1.3218    4.6994    0.0437 C   0  0  1  0  0  0  0  0  0  0  0  0
    2.2838    3.5836    0.0898 N   0  0  0  0  0  0  0  0  0  0  0  0
    3.1558    3.7051    1.2084 N   0  0  0  0  0  0  0  0  0  0  0  0
    3.1522    2.8926    2.3493 C   0  0  0  0  0  0  0  0  0  0  0  0
    1.9983    1.8885    2.5154 C   0  0  1  0  0  0  0  0  0  0  0  0
    2.4886    0.6181    3.0293 N   0  0  0  0  0  0  0  0  0  0  0  0
    2.8496   -0.4021    2.1758 C   0  0  0  0  0  0  0  0  0  0  0  0
    3.3377   -1.7008    2.8708 C   0  0  2  0  0  0  0  0  0  0  0  0
    4.8833   -1.7516    2.9837 C   0  0  0  0  0  0  0  0  0  0  0  0
    5.3263   -2.9807    3.7894 C   0  0  0  0  0  0  0  0  0  0  0  0
    5.4625   -0.4988    3.6553 C   0  0  0  0  0  0  0  0  0  0  0  0
    2.7125   -2.8549    2.1583 N   0  0  0  0  0  0  0  0  0  0  0  0
    1.4163   -3.1952    2.5600 C   0  0  0  0  0  0  0  0  0  0  0  0
    0.5360   -4.1238    1.6849 C   0  0  0  0  0  0  0  0  0  0  0  0
    0.0635   -3.3788    0.4327 C   0  0  0  0  0  0  0  0  0  0  0  0
   -0.9289   -4.2050   -0.3737 C   0  0  0  0  0  0  0  0  0  0  0  0
   -2.0236   -4.7001    0.4482 N   0  0  0  0  0  0  0  0  0  0  0  0
   -3.2610   -4.8893   -0.1617 C   0  0  0  0  0  0  0  0  0  0  0  0
   -4.3693   -5.3413    0.6499 C   0  0  0  0  0  0  0  0  0  0  0  0
   -5.3290   -5.6676    1.2968 C   0  0  0  0  0  0  0  0  0  0  0  0
   -6.5383   -6.0330    2.0721 C   0  0  0  0  0  0  0  0  0  0  0  0
   -7.6630   -6.4633    1.1951 N   0  0  0  0  0  0  0  0  0  0  0  0
   -8.1618   -5.4149    0.2982 C   0  0  0  0  0  0  0  0  0  0  0  0
   -7.3854   -7.6728    0.4128 C   0  0  0  0  0  0  0  0  0  0  0  0
   -6.9540   -4.8116    2.9275 C   0  0  0  0  0  0  0  0  0  0  0  0
   -6.1648   -7.1558    3.0669 C   0  0  0  0  0  0  0  0  0  0  0  0
   -3.4897   -4.6663   -1.3455 O   0  0  0  0  0  0  0  0  0  0  0  0
   -1.6367   -5.4150    1.6583 C   0  0  0  0  0  0  0  0  0  0  0  0
   -0.6745   -4.5990    2.5026 C   0  0  0  0  0  0  0  0  0  0  0  0
    0.9425   -2.7095    3.5970 O   0  0  0  0  0  0  0  0  0  0  0  0
    3.3308   -3.3149    0.9147 C   0  0  0  0  0  0  0  0  0  0  0  0
    2.7788   -0.2744    0.9534 O   0  0  0  0  0  0  0  0  0  0  0  0
    0.9259    2.5050    3.4381 C   0  0  0  0  0  0  0  0  0  0  0  0
   -0.3835    1.6998    3.5488 C   0  0  1  0  0  0  0  0  0  0  0  0
   -0.8755    1.2349    2.1708 C   0  0  0  0  0  0  0  0  0  0  0  0
   -2.0971    0.4082    2.2446 N   0  0  0  0  0  0  0  0  0  0  0  0
   -1.9196   -0.7016    3.2185 C   0  0  0  0  0  0  0  0  0  0  0  0
   -1.3941   -0.1700    4.5657 C   0  0  0  0  0  0  0  0  0  0  0  0
   -0.1732    0.5782    4.4229 O   0  0  0  0  0  0  0  0  0  0  0  0
    3.9920    3.0161    3.2490 O   0  0  0  0  0  0  0  0  0  0  0  0
    4.0383    4.8701    1.1316 C   0  0  0  0  0  0  0  0  0  0  0  0
    3.1746    6.1309    1.0686 C   0  0  0  0  0  0  0  0  0  0  0  0
    2.1167    6.0194   -0.0382 C   0  0  0  0  0  0  0  0  0  0  0  0
    0.0514    5.5112   -1.8736 O   0  0  0  0  0  0  0  0  0  0  0  0
   -2.3411   -0.1666   -1.4893 C   0  0  0  0  0  0  0  0  0  0  0  0
   -3.4847   -0.9504   -1.5372 C   0  0  0  0  0  0  0  0  0  0  0  0
   -4.2032   -1.2717   -0.3743 C   0  0  0  0  0  0  0  0  0  0  0  0
   -3.7270   -0.7991    0.8610 C   0  0  0  0  0  0  0  0  0  0  0  0
   -2.5564   -0.0412    0.9723 C   0  0  0  0  0  0  0  0  0  0  0  0
   -1.8901    0.2749   -0.2283 C   0  0  0  0  0  0  0  0  0  0  0  0
    1.2093   -5.2534    1.2995 F   0  0  0  0  0  0  0  0  0  0  0  0
   -2.1713   -3.6238   -3.3854 H   0  0  0  0  0  0  0  0  0  0  0  0
   -2.3729   -4.4581   -4.9389 H   0  0  0  0  0  0  0  0  0  0  0  0
   -0.9915   -4.8137   -3.8892 H   0  0  0  0  0  0  0  0  0  0  0  0
   -0.1879   -3.4014   -5.6937 H   0  0  0  0  0  0  0  0  0  0  0  0
    0.9191   -3.8529   -3.0638 H   0  0  0  0  0  0  0  0  0  0  0  0
    1.7543   -3.2773   -4.5452 H   0  0  0  0  0  0  0  0  0  0  0  0
    1.8258   -2.3329   -3.0452 H   0  0  0  0  0  0  0  0  0  0  0  0
   -2.4156   -1.5313   -8.8966 H   0  0  0  0  0  0  0  0  0  0  0  0
   -3.9639    0.2005   -7.9787 H   0  0  0  0  0  0  0  0  0  0  0  0
   -4.0454    0.5257   -5.5223 H   0  0  0  0  0  0  0  0  0  0  0  0
   -4.4817   -2.6176   -4.2559 H   0  0  0  0  0  0  0  0  0  0  0  0
   -4.9437   -2.9065   -2.5880 H   0  0  0  0  0  0  0  0  0  0  0  0
   -6.3996   -0.8577   -2.6130 H   0  0  0  0  0  0  0  0  0  0  0  0
   -5.9285   -0.5385   -4.2843 H   0  0  0  0  0  0  0  0  0  0  0  0
   -6.8606   -1.9920   -3.8922 H   0  0  0  0  0  0  0  0  0  0  0  0
    0.1379    0.6661   -2.4233 H   0  0  0  0  0  0  0  0  0  0  0  0
   -0.1865    0.3438   -4.1042 H   0  0  0  0  0  0  0  0  0  0  0  0
   -2.8489    2.2788   -4.2405 H   0  0  0  0  0  0  0  0  0  0  0  0
   -1.9015    3.6334   -4.8458 H   0  0  0  0  0  0  0  0  0  0  0  0
   -1.6075    2.0219   -5.4898 H   0  0  0  0  0  0  0  0  0  0  0  0
    1.3736    2.6681   -3.3144 H   0  0  0  0  0  0  0  0  0  0  0  0
    0.8243    2.3681   -4.9644 H   0  0  0  0  0  0  0  0  0  0  0  0
    0.5158    3.9346   -4.2097 H   0  0  0  0  0  0  0  0  0  0  0  0
   -1.6056    4.1163   -2.5325 H   0  0  0  0  0  0  0  0  0  0  0  0
   -2.0413    2.6583   -1.7107 H   0  0  0  0  0  0  0  0  0  0  0  0
    0.6948    4.6982    0.9434 H   0  0  0  0  0  0  0  0  0  0  0  0
    1.8453    2.6690   -0.0186 H   0  0  0  0  0  0  0  0  0  0  0  0
    1.5713    1.6931    1.5373 H   0  0  0  0  0  0  0  0  0  0  0  0
    2.6507    0.5344    4.0271 H   0  0  0  0  0  0  0  0  0  0  0  0
    2.9419   -1.6826    3.8949 H   0  0  0  0  0  0  0  0  0  0  0  0
    5.3301   -1.8079    1.9842 H   0  0  0  0  0  0  0  0  0  0  0  0
    4.9339   -2.9435    4.8119 H   0  0  0  0  0  0  0  0  0  0  0  0
    4.9835   -3.9132    3.3322 H   0  0  0  0  0  0  0  0  0  0  0  0
    6.4188   -3.0297    3.8514 H   0  0  0  0  0  0  0  0  0  0  0  0
    5.0006   -0.3201    4.6318 H   0  0  0  0  0  0  0  0  0  0  0  0
    6.5422   -0.6028    3.8077 H   0  0  0  0  0  0  0  0  0  0  0  0
    5.3134    0.3889    3.0331 H   0  0  0  0  0  0  0  0  0  0  0  0
   -0.4054   -2.4315    0.7244 H   0  0  0  0  0  0  0  0  0  0  0  0
    0.9030   -3.1229   -0.2201 H   0  0  0  0  0  0  0  0  0  0  0  0
   -1.3198   -3.5906   -1.1913 H   0  0  0  0  0  0  0  0  0  0  0  0
   -0.4352   -5.0736   -0.8256 H   0  0  0  0  0  0  0  0  0  0  0  0
   -8.5631   -4.5632    0.8555 H   0  0  0  0  0  0  0  0  0  0  0  0
   -7.3977   -5.0542   -0.3989 H   0  0  0  0  0  0  0  0  0  0  0  0
   -9.0049   -5.7887   -0.2961 H   0  0  0  0  0  0  0  0  0  0  0  0
   -7.1692   -8.5318    1.0546 H   0  0  0  0  0  0  0  0  0  0  0  0
   -8.2705   -7.9637   -0.1664 H   0  0  0  0  0  0  0  0  0  0  0  0
   -6.5565   -7.5398   -0.2907 H   0  0  0  0  0  0  0  0  0  0  0  0
   -6.1852   -4.5701    3.6723 H   0  0  0  0  0  0  0  0  0  0  0  0
   -7.0868   -3.9046    2.3266 H   0  0  0  0  0  0  0  0  0  0  0  0
   -7.8866   -5.0037    3.4704 H   0  0  0  0  0  0  0  0  0  0  0  0
   -5.4427   -6.8004    3.8135 H   0  0  0  0  0  0  0  0  0  0  0  0
   -7.0475   -7.5143    3.6104 H   0  0  0  0  0  0  0  0  0  0  0  0
   -5.6930   -8.0130    2.5734 H   0  0  0  0  0  0  0  0  0  0  0  0
   -2.5107   -5.6763    2.2613 H   0  0  0  0  0  0  0  0  0  0  0  0
   -1.1739   -6.3588    1.3451 H   0  0  0  0  0  0  0  0  0  0  0  0
   -0.3366   -5.2101    3.3480 H   0  0  0  0  0  0  0  0  0  0  0  0
   -1.2188   -3.7440    2.9204 H   0  0  0  0  0  0  0  0  0  0  0  0
    4.3753   -3.5774    1.0928 H   0  0  0  0  0  0  0  0  0  0  0  0
    2.8527   -4.2036    0.5098 H   0  0  0  0  0  0  0  0  0  0  0  0
    3.2799   -2.5273    0.1598 H   0  0  0  0  0  0  0  0  0  0  0  0
    1.3480    2.6414    4.4431 H   0  0  0  0  0  0  0  0  0  0  0  0
    0.6780    3.5056    3.0635 H   0  0  0  0  0  0  0  0  0  0  0  0
   -1.1391    2.3437    4.0173 H   0  0  0  0  0  0  0  0  0  0  0  0
   -1.0498    2.1261    1.5551 H   0  0  0  0  0  0  0  0  0  0  0  0
   -0.1030    0.6048    1.7184 H   0  0  0  0  0  0  0  0  0  0  0  0
   -2.8579   -1.2330    3.4034 H   0  0  0  0  0  0  0  0  0  0  0  0
   -1.1912   -1.4085    2.8109 H   0  0  0  0  0  0  0  0  0  0  0  0
   -2.1430    0.4663    5.0509 H   0  0  0  0  0  0  0  0  0  0  0  0
   -1.1876   -1.0099    5.2370 H   0  0  0  0  0  0  0  0  0  0  0  0
    4.7105    4.9184    1.9935 H   0  0  0  0  0  0  0  0  0  0  0  0
    4.6529    4.7716    0.2287 H   0  0  0  0  0  0  0  0  0  0  0  0
    2.6654    6.2694    2.0306 H   0  0  0  0  0  0  0  0  0  0  0  0
    3.8033    7.0122    0.9023 H   0  0  0  0  0  0  0  0  0  0  0  0
    2.6143    6.0946   -1.0146 H   0  0  0  0  0  0  0  0  0  0  0  0
    1.4323    6.8739    0.0292 H   0  0  0  0  0  0  0  0  0  0  0  0
   -5.1049   -1.8738   -0.4144 H   0  0  0  0  0  0  0  0  0  0  0  0
   -4.3118   -1.0298    1.7473 H   0  0  0  0  0  0  0  0  0  0  0  0
   -0.9792    0.8577   -0.2401 H   0  0  0  0  0  0  0  0  0  0  0  0
  1  2  1  0
  2  3  1  0
  2  5  1  0
  3  4  1  0
  5  6  2  0
  5 10  1  0
  6  7  1  0
  7  8  2  0
  8  9  1  0
  9 10  2  0
 10 11  1  0
 11 12  1  0
 11 15  2  0
 12 13  1  0
 12 68  1  0
 13 14  1  0
 15 16  1  0
 15 67  1  0
 16 17  1  0
 17 18  1  0
 17 19  1  0
 17 20  1  0
 20 21  1  0
 21 22  1  0
 22 23  1  0
 22 66  2  0
 23 24  1  0
 23 65  1  0
 24 25  1  0
 25 26  1  0
 25 63  1  0
 26 27  1  0
 26 62  2  0
 27 28  1  0
 27 55  1  0
 28 29  1  0
 29 30  1  0
 29 54  2  0
 30 31  1  0
 30 34  1  0
 31 32  1  0
 31 33  1  0
 34 35  1  0
 34 53  1  0
 35 36  1  0
 35 52  2  0
 36 37  1  0
 36 51  1  0
 36 73  1  0
 37 38  1  0
 38 39  1  0
 39 40  1  0
 39 50  1  0
 40 41  1  0
 40 49  2  0
 42 43  1  0
 43 44  1  0
 43 47  1  0
 43 48  1  0
 44 45  1  0
 44 46  1  0
 50 51  1  0
 55 56  1  0
 56 57  1  0
 56 61  1  0
 57 58  1  0
 58 59  1  0
 58 71  1  0
 59 60  1  0
 60 61  1  0
 63 64  1  0
 64 65  1  0
 67 68  2  0
 67 72  1  0
 68 69  1  0
 69 70  2  0
 70 71  1  0
 71 72  2  0
 41 42  3  0
  1 74  1  0
  1 75  1  0
  1 76  1  0
  2 77  1  6
  4 78  1  0
  4 79  1  0
  4 80  1  0
  7 81  1  0
  8 82  1  0
  9 83  1  0
 13 84  1  0
 13 85  1  0
 14 86  1  0
 14 87  1  0
 14 88  1  0
 16 89  1  0
 16 90  1  0
 18 91  1  0
 18 92  1  0
 18 93  1  0
 19 94  1  0
 19 95  1  0
 19 96  1  0
 20 97  1  0
 20 98  1  0
 23 99  1  1
 24100  1  0
 27101  1  6
 28102  1  0
 30103  1  1
 31104  1  0
 32105  1  0
 32106  1  0
 32107  1  0
 33108  1  0
 33109  1  0
 33110  1  0
 37111  1  0
 37112  1  0
 38113  1  0
 38114  1  0
 45115  1  0
 45116  1  0
 45117  1  0
 46118  1  0
 46119  1  0
 46120  1  0
 47121  1  0
 47122  1  0
 47123  1  0
 48124  1  0
 48125  1  0
 48126  1  0
 50127  1  0
 50128  1  0
 51129  1  0
 51130  1  0
 53131  1  0
 53132  1  0
 53133  1  0
 55134  1  0
 55135  1  0
 56136  1  1
 57137  1  0
 57138  1  0
 59139  1  0
 59140  1  0
 60141  1  0
 60142  1  0
 63143  1  0
 63144  1  0
 64145  1  0
 64146  1  0
 65147  1  0
 65148  1  0
 69149  1  0
 70150  1  0
 72151  1  0
M  END
$$$$
