mol_bioactive_38
     RDKit          3D

151157  0  0  0  0  0  0  0  0999 V2000
    4.4424   -4.0766    1.5201 C   0  0  0  0  0  0  0  0  0  0  0  0
    3.8126   -4.5203    2.8392 C   0  0  2  0  0  0  0  0  0  0  0  0
    2.4066   -4.2423    2.8489 O   0  0  0  0  0  0  0  0  0  0  0  0
    1.6326   -5.2956    2.2954 C   0  0  0  0  0  0  0  0  0  0  0  0
    4.5394   -3.9241    4.0385 C   0  0  0  0  0  0  0  0  0  0  0  0
    5.3367   -4.8269    4.6950 N   0  0  0  0  0  0  0  0  0  0  0  0
    6.0830   -4.3975    5.7342 C   0  0  0  0  0  0  0  0  0  0  0  0
    6.1084   -3.0878    6.1617 C   0  0  0  0  0  0  0  0  0  0  0  0
    5.3065   -2.1725    5.4918 C   0  0  0  0  0  0  0  0  0  0  0  0
    4.4906   -2.5731    4.4201 C   0  0  0  0  0  0  0  0  0  0  0  0
    3.6640   -1.5433    3.7762 C   0  0  0  0  0  0  0  0  0  0  0  0
    4.1596   -0.6522    2.8345 N   0  0  0  0  0  0  0  0  0  0  0  0
    5.5257   -0.6144    2.3274 C   0  0  0  0  0  0  0  0  0  0  0  0
    6.3737    0.4441    3.0132 C   0  0  0  0  0  0  0  0  0  0  0  0
    2.3223   -1.2181    3.9918 C   0  0  0  0  0  0  0  0  0  0  0  0
    1.3330   -1.8963    4.9169 C   0  0  0  0  0  0  0  0  0  0  0  0
    1.1393   -1.3032    6.3448 C   0  0  0  0  0  0  0  0  0  0  0  0
    2.4649   -1.3137    7.1271 C   0  0  0  0  0  0  0  0  0  0  0  0
    0.1556   -2.2293    7.0950 C   0  0  0  0  0  0  0  0  0  0  0  0
    0.6051    0.1522    6.3415 C   0  0  0  0  0  0  0  0  0  0  0  0
   -0.8069    0.2578    6.0489 O   0  0  0  0  0  0  0  0  0  0  0  0
   -1.6005    0.5857    7.1221 C   0  0  0  0  0  0  0  0  0  0  0  0
   -3.0239    0.9406    6.6731 C   0  0  1  0  0  0  0  0  0  0  0  0
   -3.6469   -0.1752    5.9403 N   0  0  0  0  0  0  0  0  0  0  0  0
   -4.9650    0.1680    5.5262 N   0  0  0  0  0  0  0  0  0  0  0  0
   -5.3086    0.6887    4.2688 C   0  0  0  0  0  0  0  0  0  0  0  0
   -4.1898    0.8670    3.2253 C   0  0  1  0  0  0  0  0  0  0  0  0
   -4.4820    0.0686    2.0474 N   0  0  0  0  0  0  0  0  0  0  0  0
   -4.0691   -1.2438    1.9630 C   0  0  0  0  0  0  0  0  0  0  0  0
   -4.4499   -1.9653    0.6453 C   0  0  2  0  0  0  0  0  0  0  0  0
   -5.6730   -2.8999    0.8452 C   0  0  0  0  0  0  0  0  0  0  0  0
   -6.0806   -3.5618   -0.4786 C   0  0  0  0  0  0  0  0  0  0  0  0
   -6.8849   -2.1407    1.4011 C   0  0  0  0  0  0  0  0  0  0  0  0
   -3.2265   -2.6244    0.1050 N   0  0  0  0  0  0  0  0  0  0  0  0
   -2.4119   -1.8352   -0.7116 C   0  0  0  0  0  0  0  0  0  0  0  0
   -1.0189   -2.3425   -1.1612 C   0  0  0  0  0  0  0  0  0  0  0  0
   -0.0163   -2.2734   -0.0009 C   0  0  0  0  0  0  0  0  0  0  0  0
    1.3971   -2.6184   -0.4604 C   0  0  0  0  0  0  0  0  0  0  0  0
    1.7730   -1.7973   -1.5998 N   0  0  0  0  0  0  0  0  0  0  0  0
    2.9727   -1.1008   -1.5826 C   0  0  0  0  0  0  0  0  0  0  0  0
    3.1503   -0.0353   -2.5458 C   0  0  0  0  0  0  0  0  0  0  0  0
    3.2697    0.9099   -3.2796 C   0  0  0  0  0  0  0  0  0  0  0  0
    3.4002    2.1240   -4.1204 C   0  0  0  0  0  0  0  0  0  0  0  0
    2.8077    1.9454   -5.4742 N   0  0  0  0  0  0  0  0  0  0  0  0
    3.4626    0.9155   -6.2861 C   0  0  0  0  0  0  0  0  0  0  0  0
    1.3592    1.7285   -5.4798 C   0  0  0  0  0  0  0  0  0  0  0  0
    2.7176    3.2984   -3.3771 C   0  0  0  0  0  0  0  0  0  0  0  0
    4.9005    2.4878   -4.2260 C   0  0  0  0  0  0  0  0  0  0  0  0
    3.8731   -1.2906   -0.7740 O   0  0  0  0  0  0  0  0  0  0  0  0
    0.8811   -1.8677   -2.7488 C   0  0  0  0  0  0  0  0  0  0  0  0
   -0.5317   -1.4878   -2.3443 C   0  0  0  0  0  0  0  0  0  0  0  0
   -2.7891   -0.7069   -1.0538 O   0  0  0  0  0  0  0  0  0  0  0  0
   -2.8015   -3.8883    0.7068 C   0  0  0  0  0  0  0  0  0  0  0  0
   -3.4509   -1.7842    2.8797 O   0  0  0  0  0  0  0  0  0  0  0  0
   -4.0374    2.3642    2.8921 C   0  0  0  0  0  0  0  0  0  0  0  0
   -2.8492    2.7028    1.9713 C   0  0  1  0  0  0  0  0  0  0  0  0
   -1.5800    1.9215    2.3552 C   0  0  0  0  0  0  0  0  0  0  0  0
   -0.4469    2.2299    1.4618 N   0  0  0  0  0  0  0  0  0  0  0  0
   -0.8310    2.0433    0.0361 C   0  0  0  0  0  0  0  0  0  0  0  0
   -2.1447    2.7846   -0.2758 C   0  0  0  0  0  0  0  0  0  0  0  0
   -3.2176    2.4135    0.6103 O   0  0  0  0  0  0  0  0  0  0  0  0
   -6.4692    1.0148    3.9909 O   0  0  0  0  0  0  0  0  0  0  0  0
   -5.8902    0.3278    6.6498 C   0  0  0  0  0  0  0  0  0  0  0  0
   -5.3837    1.4790    7.5213 C   0  0  0  0  0  0  0  0  0  0  0  0
   -3.9084    1.2695    7.8981 C   0  0  0  0  0  0  0  0  0  0  0  0
   -1.2076    0.6631    8.2805 O   0  0  0  0  0  0  0  0  0  0  0  0
    2.0033   -0.1650    3.0731 C   0  0  0  0  0  0  0  0  0  0  0  0
    3.1564    0.1817    2.3810 C   0  0  0  0  0  0  0  0  0  0  0  0
    3.1559    1.2034    1.4172 C   0  0  0  0  0  0  0  0  0  0  0  0
    1.9482    1.8658    1.1424 C   0  0  0  0  0  0  0  0  0  0  0  0
    0.7520    1.5371    1.7884 C   0  0  0  0  0  0  0  0  0  0  0  0
    0.8095    0.5235    2.7663 C   0  0  0  0  0  0  0  0  0  0  0  0
   -1.0737   -3.6349   -1.6144 F   0  0  0  0  0  0  0  0  0  0  0  0
    4.1686   -3.0509    1.2744 H   0  0  0  0  0  0  0  0  0  0  0  0
    5.5336   -4.1501    1.5477 H   0  0  0  0  0  0  0  0  0  0  0  0
    4.0818   -4.6955    0.6936 H   0  0  0  0  0  0  0  0  0  0  0  0
    3.9487   -5.6101    2.9148 H   0  0  0  0  0  0  0  0  0  0  0  0
    0.5876   -4.9770    2.2763 H   0  0  0  0  0  0  0  0  0  0  0  0
    1.9443   -5.5163    1.2710 H   0  0  0  0  0  0  0  0  0  0  0  0
    1.7134   -6.1948    2.9146 H   0  0  0  0  0  0  0  0  0  0  0  0
    6.6838   -5.1593    6.2243 H   0  0  0  0  0  0  0  0  0  0  0  0
    6.7280   -2.7832    6.9975 H   0  0  0  0  0  0  0  0  0  0  0  0
    5.3074   -1.1331    5.8139 H   0  0  0  0  0  0  0  0  0  0  0  0
    5.9774   -1.6027    2.4513 H   0  0  0  0  0  0  0  0  0  0  0  0
    5.4788   -0.4268    1.2495 H   0  0  0  0  0  0  0  0  0  0  0  0
    6.4537    0.2555    4.0878 H   0  0  0  0  0  0  0  0  0  0  0  0
    7.3846    0.4471    2.5942 H   0  0  0  0  0  0  0  0  0  0  0  0
    5.9481    1.4437    2.8826 H   0  0  0  0  0  0  0  0  0  0  0  0
    0.3579   -1.9272    4.4103 H   0  0  0  0  0  0  0  0  0  0  0  0
    1.6302   -2.9479    5.0175 H   0  0  0  0  0  0  0  0  0  0  0  0
    2.3057   -1.0374    8.1766 H   0  0  0  0  0  0  0  0  0  0  0  0
    2.9181   -2.3105    7.1232 H   0  0  0  0  0  0  0  0  0  0  0  0
    3.1769   -0.5932    6.7120 H   0  0  0  0  0  0  0  0  0  0  0  0
   -0.0302   -1.8729    8.1145 H   0  0  0  0  0  0  0  0  0  0  0  0
   -0.8086   -2.2974    6.5797 H   0  0  0  0  0  0  0  0  0  0  0  0
    0.5550   -3.2478    7.1738 H   0  0  0  0  0  0  0  0  0  0  0  0
    0.8363    0.6367    7.2989 H   0  0  0  0  0  0  0  0  0  0  0  0
    1.1303    0.7617    5.6015 H   0  0  0  0  0  0  0  0  0  0  0  0
   -2.9455    1.8278    6.0333 H   0  0  0  0  0  0  0  0  0  0  0  0
   -3.0727   -0.5647    5.1882 H   0  0  0  0  0  0  0  0  0  0  0  0
   -3.2514    0.5149    3.6441 H   0  0  0  0  0  0  0  0  0  0  0  0
   -4.9209    0.5224    1.2526 H   0  0  0  0  0  0  0  0  0  0  0  0
   -4.7607   -1.1950   -0.0721 H   0  0  0  0  0  0  0  0  0  0  0  0
   -5.4279   -3.6853    1.5704 H   0  0  0  0  0  0  0  0  0  0  0  0
   -6.9465   -4.2155   -0.3322 H   0  0  0  0  0  0  0  0  0  0  0  0
   -6.3491   -2.8098   -1.2286 H   0  0  0  0  0  0  0  0  0  0  0  0
   -5.2756   -4.1751   -0.8907 H   0  0  0  0  0  0  0  0  0  0  0  0
   -6.6909   -1.7603    2.4088 H   0  0  0  0  0  0  0  0  0  0  0  0
   -7.1533   -1.2933    0.7592 H   0  0  0  0  0  0  0  0  0  0  0  0
   -7.7576   -2.8004    1.4698 H   0  0  0  0  0  0  0  0  0  0  0  0
   -0.0248   -1.2630    0.4245 H   0  0  0  0  0  0  0  0  0  0  0  0
   -0.2907   -2.9559    0.8076 H   0  0  0  0  0  0  0  0  0  0  0  0
    2.0907   -2.4692    0.3704 H   0  0  0  0  0  0  0  0  0  0  0  0
    1.4618   -3.6693   -0.7661 H   0  0  0  0  0  0  0  0  0  0  0  0
    3.3985   -0.0814   -5.8356 H   0  0  0  0  0  0  0  0  0  0  0  0
    3.0027    0.8612   -7.2809 H   0  0  0  0  0  0  0  0  0  0  0  0
    4.5148    1.1531   -6.4721 H   0  0  0  0  0  0  0  0  0  0  0  0
    1.0644    0.8300   -4.9276 H   0  0  0  0  0  0  0  0  0  0  0  0
    0.8199    2.5879   -5.0705 H   0  0  0  0  0  0  0  0  0  0  0  0
    0.9899    1.6221   -6.5074 H   0  0  0  0  0  0  0  0  0  0  0  0
    3.2228    3.5116   -2.4260 H   0  0  0  0  0  0  0  0  0  0  0  0
    2.7407    4.2165   -3.9759 H   0  0  0  0  0  0  0  0  0  0  0  0
    1.6744    3.0809   -3.1202 H   0  0  0  0  0  0  0  0  0  0  0  0
    5.3135    2.7522   -3.2437 H   0  0  0  0  0  0  0  0  0  0  0  0
    5.5092    1.6538   -4.5945 H   0  0  0  0  0  0  0  0  0  0  0  0
    5.0554    3.3472   -4.8897 H   0  0  0  0  0  0  0  0  0  0  0  0
    1.2224   -1.2311   -3.5678 H   0  0  0  0  0  0  0  0  0  0  0  0
    0.9093   -2.8986   -3.1221 H   0  0  0  0  0  0  0  0  0  0  0  0
   -1.1989   -1.6248   -3.2036 H   0  0  0  0  0  0  0  0  0  0  0  0
   -0.5476   -0.4214   -2.0860 H   0  0  0  0  0  0  0  0  0  0  0  0
   -2.4721   -3.7153    1.7349 H   0  0  0  0  0  0  0  0  0  0  0  0
   -3.6269   -4.6048    0.7064 H   0  0  0  0  0  0  0  0  0  0  0  0
   -1.9820   -4.3569    0.1647 H   0  0  0  0  0  0  0  0  0  0  0  0
   -4.9634    2.7365    2.4356 H   0  0  0  0  0  0  0  0  0  0  0  0
   -3.9065    2.9119    3.8344 H   0  0  0  0  0  0  0  0  0  0  0  0
   -2.6621    3.7829    2.0425 H   0  0  0  0  0  0  0  0  0  0  0  0
   -1.3233    2.1570    3.3954 H   0  0  0  0  0  0  0  0  0  0  0  0
   -1.7870    0.8513    2.2486 H   0  0  0  0  0  0  0  0  0  0  0  0
   -0.0561    2.4177   -0.6404 H   0  0  0  0  0  0  0  0  0  0  0  0
   -0.9718    0.9746   -0.1566 H   0  0  0  0  0  0  0  0  0  0  0  0
   -1.9994    3.8701   -0.2164 H   0  0  0  0  0  0  0  0  0  0  0  0
   -2.4664    2.5506   -1.2951 H   0  0  0  0  0  0  0  0  0  0  0  0
   -6.9064    0.5350    6.3008 H   0  0  0  0  0  0  0  0  0  0  0  0
   -5.9101   -0.6125    7.2137 H   0  0  0  0  0  0  0  0  0  0  0  0
   -5.4758    2.4221    6.9688 H   0  0  0  0  0  0  0  0  0  0  0  0
   -5.9942    1.5678    8.4254 H   0  0  0  0  0  0  0  0  0  0  0  0
   -3.8463    0.4541    8.6312 H   0  0  0  0  0  0  0  0  0  0  0  0
   -3.5303    2.1688    8.3996 H   0  0  0  0  0  0  0  0  0  0  0  0
    4.0588    1.4737    0.8790 H   0  0  0  0  0  0  0  0  0  0  0  0
    1.9635    2.6673    0.4077 H   0  0  0  0  0  0  0  0  0  0  0  0
   -0.0715    0.2078    3.3111 H   0  0  0  0  0  0  0  0  0  0  0  0
  1  2  1  0
  2  3  1  0
  2  5  1  0
  3  4  1  0
  5  6  2  0
  5 10  1  0
  6  7  1  0
  7  8  2  0
  8  9  1  0
  9 10  2  0
 10 11  1  0
 11 12  1  0
 11 15  2  0
 12 13  1  0
 12 68  1  0
 13 14  1  0
 15 16  1  0
 15 67  1  0
 16 17  1  0
 17 18  1  0
 17 19  1  0
 17 20  1  0
 20 21  1  0
 21 22  1  0
 22 23  1  0
 22 66  2  0
 23 24  1  0
 23 65  1  0
 24 25  1  0
 25 26  1  0
 25 63  1  0
 26 27  1  0
 26 62  2  0
 27 28  1  0
 27 55  1  0
 28 29  1  0
 29 30  1  0
 29 54  2  0
 30 31  1  0
 30 34  1  0
 31 32  1  0
 31 33  1  0
 34 35  1  0
 34 53  1  0
 35 36  1  0
 35 52  2  0
 36 37  1  0
 36 51  1  0
 36 73  1  0
 37 38  1  0
 38 39  1  0
 39 40  1  0
 39 50  1  0
 40 41  1  0
 40 49  2  0
 42 43  1  0
 43 44  1  0
 43 47  1  0
 43 48  1  0
 44 45  1  0
 44 46  1  0
 50 51  1  0
 55 56  1  0
 56 57  1  0
 56 61  1  0
 57 58  1  0
 58 59  1  0
 58 71  1  0
 59 60  1  0
 60 61  1  0
 63 64  1  0
 64 65  1  0
 67 68  2  0
 67 72  1  0
 68 69  1  0
 69 70  2  0
 70 71  1  0
 71 72  2  0
 41 42  3  0
  1 74  1  0
  1 75  1  0
  1 76  1  0
  2 77  1  1
  4 78  1  0
  4 79  1  0
  4 80  1  0
  7 81  1  0
  8 82  1  0
  9 83  1  0
 13 84  1  0
 13 85  1  0
 14 86  1  0
 14 87  1  0
 14 88  1  0
 16 89  1  0
 16 90  1  0
 18 91  1  0
 18 92  1  0
 18 93  1  0
 19 94  1  0
 19 95  1  0
 19 96  1  0
 20 97  1  0
 20 98  1  0
 23 99  1  6
 24100  1  0
 27101  1  1
 28102  1  0
 30103  1  6
 31104  1  0
 32105  1  0
 32106  1  0
 32107  1  0
 33108  1  0
 33109  1  0
 33110  1  0
 37111  1  0
 37112  1  0
 38113  1  0
 38114  1  0
 45115  1  0
 45116  1  0
 45117  1  0
 46118  1  0
 46119  1  0
 46120  1  0
 47121  1  0
 47122  1  0
 47123  1  0
 48124  1  0
 48125  1  0
 48126  1  0
 50127  1  0
 50128  1  0
 51129  1  0
 51130  1  0
 53131  1  0
 53132  1  0
 53133  1  0
 55134  1  0
 55135  1  0
 56136  1  6
 57137  1  0
 57138  1  0
 59139  1  0
 59140  1  0
 60141  1  0
 60142  1  0
 63143  1  0
 63144  1  0
 64145  1  0
 64146  1  0
 65147  1  0
 65148  1  0
 69149  1  0
 70150  1  0
 72151  1  0
M  END
$$$$
