mol_bioactive_10
     RDKit          3D

151157  0  0  0  0  0  0  0  0999 V2000
    5.7423    0.0396   -2.8088 C   0  0  0  0  0  0  0  0  0  0  0  0
    5.5389    0.6943   -1.4454 C   0  0  2  0  0  0  0  0  0  0  0  0
    4.1896    0.5049   -1.0036 O   0  0  0  0  0  0  0  0  0  0  0  0
    4.0384   -0.6213   -0.1550 C   0  0  0  0  0  0  0  0  0  0  0  0
    5.9661    2.1566   -1.4598 C   0  0  0  0  0  0  0  0  0  0  0  0
    7.2144    2.3624   -0.9310 N   0  0  0  0  0  0  0  0  0  0  0  0
    7.7222    3.6115   -0.9429 C   0  0  0  0  0  0  0  0  0  0  0  0
    7.0625    4.6974   -1.4759 C   0  0  0  0  0  0  0  0  0  0  0  0
    5.8022    4.4876   -2.0210 C   0  0  0  0  0  0  0  0  0  0  0  0
    5.2189    3.2102   -2.0155 C   0  0  0  0  0  0  0  0  0  0  0  0
    3.8789    3.0711   -2.6024 C   0  0  0  0  0  0  0  0  0  0  0  0
    3.6489    2.9677   -3.9672 N   0  0  0  0  0  0  0  0  0  0  0  0
    4.6644    3.0196   -5.0118 C   0  0  0  0  0  0  0  0  0  0  0  0
    4.7529    4.3911   -5.6615 C   0  0  0  0  0  0  0  0  0  0  0  0
    2.6342    3.0550   -1.9691 C   0  0  0  0  0  0  0  0  0  0  0  0
    2.3442    3.1500   -0.4850 C   0  0  0  0  0  0  0  0  0  0  0  0
    1.9796    4.5511    0.0931 C   0  0  0  0  0  0  0  0  0  0  0  0
    1.8856    4.4065    1.6283 C   0  0  0  0  0  0  0  0  0  0  0  0
    3.0908    5.5744   -0.2050 C   0  0  0  0  0  0  0  0  0  0  0  0
    0.6493    5.1203   -0.4625 C   0  0  0  0  0  0  0  0  0  0  0  0
   -0.5267    4.4712    0.0728 O   0  0  0  0  0  0  0  0  0  0  0  0
   -1.2868    5.2366    0.9232 C   0  0  0  0  0  0  0  0  0  0  0  0
   -2.6269    4.5588    1.2411 C   0  0  1  0  0  0  0  0  0  0  0  0
   -2.4273    3.1767    1.7107 N   0  0  0  0  0  0  0  0  0  0  0  0
   -3.6735    2.5510    1.9908 N   0  0  0  0  0  0  0  0  0  0  0  0
   -4.3276    1.6223    1.1686 C   0  0  0  0  0  0  0  0  0  0  0  0
   -3.7130    1.3168   -0.2094 C   0  0  1  0  0  0  0  0  0  0  0  0
   -3.5993   -0.1186   -0.4082 N   0  0  0  0  0  0  0  0  0  0  0  0
   -2.4614   -0.7954   -0.0255 C   0  0  0  0  0  0  0  0  0  0  0  0
   -2.4732   -2.3189   -0.3155 C   0  0  2  0  0  0  0  0  0  0  0  0
   -2.8152   -3.1432    0.9531 C   0  0  0  0  0  0  0  0  0  0  0  0
   -2.9757   -4.6309    0.6090 C   0  0  0  0  0  0  0  0  0  0  0  0
   -4.1094   -2.6600    1.6229 C   0  0  0  0  0  0  0  0  0  0  0  0
   -1.1710   -2.6510   -0.9586 N   0  0  0  0  0  0  0  0  0  0  0  0
   -1.1108   -2.5253   -2.3474 C   0  0  0  0  0  0  0  0  0  0  0  0
    0.2462   -2.6224   -3.0865 C   0  0  0  0  0  0  0  0  0  0  0  0
    1.0365   -1.3234   -2.9005 C   0  0  0  0  0  0  0  0  0  0  0  0
    2.3135   -1.3214   -3.7299 C   0  0  0  0  0  0  0  0  0  0  0  0
    2.0461   -1.6332   -5.1278 N   0  0  0  0  0  0  0  0  0  0  0  0
    2.8377   -1.0301   -6.1012 C   0  0  0  0  0  0  0  0  0  0  0  0
    2.5389   -1.2945   -7.4927 C   0  0  0  0  0  0  0  0  0  0  0  0
    2.2811   -1.4557   -8.6568 C   0  0  0  0  0  0  0  0  0  0  0  0
    1.9494   -1.6106  -10.0929 C   0  0  0  0  0  0  0  0  0  0  0  0
    2.6253   -2.7845  -10.7108 N   0  0  0  0  0  0  0  0  0  0  0  0
    2.2247   -4.0766  -10.1482 C   0  0  0  0  0  0  0  0  0  0  0  0
    4.0892   -2.6938  -10.7275 C   0  0  0  0  0  0  0  0  0  0  0  0
    2.3433   -0.3068  -10.8273 C   0  0  0  0  0  0  0  0  0  0  0  0
    0.4133   -1.7374  -10.2284 C   0  0  0  0  0  0  0  0  0  0  0  0
    3.7576   -0.2572   -5.8642 O   0  0  0  0  0  0  0  0  0  0  0  0
    1.2928   -2.8572   -5.3725 C   0  0  0  0  0  0  0  0  0  0  0  0
   -0.0031   -2.8754   -4.5810 C   0  0  0  0  0  0  0  0  0  0  0  0
   -2.1397   -2.2838   -2.9927 O   0  0  0  0  0  0  0  0  0  0  0  0
   -0.0168   -2.8905   -0.0917 C   0  0  0  0  0  0  0  0  0  0  0  0
   -1.5160   -0.2145    0.5086 O   0  0  0  0  0  0  0  0  0  0  0  0
   -4.5677    1.9903   -1.3017 C   0  0  0  0  0  0  0  0  0  0  0  0
   -3.9854    1.9073   -2.7260 C   0  0  1  0  0  0  0  0  0  0  0  0
   -2.4753    2.1909   -2.7425 C   0  0  0  0  0  0  0  0  0  0  0  0
   -1.8882    2.0788   -4.0919 N   0  0  0  0  0  0  0  0  0  0  0  0
   -2.2555    0.7822   -4.7237 C   0  0  0  0  0  0  0  0  0  0  0  0
   -3.7714    0.5253   -4.6197 C   0  0  0  0  0  0  0  0  0  0  0  0
   -4.2567    0.6027   -3.2664 O   0  0  0  0  0  0  0  0  0  0  0  0
   -5.3982    1.0961    1.4954 O   0  0  0  0  0  0  0  0  0  0  0  0
   -4.3760    3.1503    3.1254 C   0  0  0  0  0  0  0  0  0  0  0  0
   -4.6611    4.6172    2.7943 C   0  0  0  0  0  0  0  0  0  0  0  0
   -3.3806    5.3363    2.3428 C   0  0  0  0  0  0  0  0  0  0  0  0
   -0.9799    6.3579    1.3131 O   0  0  0  0  0  0  0  0  0  0  0  0
    1.6608    2.8013   -2.9887 C   0  0  0  0  0  0  0  0  0  0  0  0
    2.3060    2.7598   -4.2164 C   0  0  0  0  0  0  0  0  0  0  0  0
    1.5990    2.5360   -5.4089 C   0  0  0  0  0  0  0  0  0  0  0  0
    0.2115    2.3266   -5.3372 C   0  0  0  0  0  0  0  0  0  0  0  0
   -0.4837    2.3208   -4.1233 C   0  0  0  0  0  0  0  0  0  0  0  0
    0.2670    2.5857   -2.9602 C   0  0  0  0  0  0  0  0  0  0  0  0
    1.0006   -3.6720   -2.6315 F   0  0  0  0  0  0  0  0  0  0  0  0
    5.5146   -1.0299   -2.7615 H   0  0  0  0  0  0  0  0  0  0  0  0
    5.0744    0.4653   -3.5607 H   0  0  0  0  0  0  0  0  0  0  0  0
    6.7721    0.1589   -3.1610 H   0  0  0  0  0  0  0  0  0  0  0  0
    6.2105    0.1863   -0.7383 H   0  0  0  0  0  0  0  0  0  0  0  0
    4.6182   -0.4894    0.7630 H   0  0  0  0  0  0  0  0  0  0  0  0
    2.9824   -0.7083    0.1133 H   0  0  0  0  0  0  0  0  0  0  0  0
    4.3436   -1.5383   -0.6673 H   0  0  0  0  0  0  0  0  0  0  0  0
    8.7089    3.7141   -0.5010 H   0  0  0  0  0  0  0  0  0  0  0  0
    7.5117    5.6831   -1.4655 H   0  0  0  0  0  0  0  0  0  0  0  0
    5.2612    5.3306   -2.4441 H   0  0  0  0  0  0  0  0  0  0  0  0
    5.6308    2.7369   -4.5850 H   0  0  0  0  0  0  0  0  0  0  0  0
    4.4178    2.2621   -5.7612 H   0  0  0  0  0  0  0  0  0  0  0  0
    4.9908    5.1667   -4.9281 H   0  0  0  0  0  0  0  0  0  0  0  0
    5.5325    4.3965   -6.4291 H   0  0  0  0  0  0  0  0  0  0  0  0
    3.8070    4.6668   -6.1391 H   0  0  0  0  0  0  0  0  0  0  0  0
    1.5368    2.4445   -0.2453 H   0  0  0  0  0  0  0  0  0  0  0  0
    3.2220    2.7719    0.0555 H   0  0  0  0  0  0  0  0  0  0  0  0
    1.6060    5.3539    2.1011 H   0  0  0  0  0  0  0  0  0  0  0  0
    1.1466    3.6516    1.9176 H   0  0  0  0  0  0  0  0  0  0  0  0
    2.8479    4.0996    2.0554 H   0  0  0  0  0  0  0  0  0  0  0  0
    2.8869    6.5330    0.2867 H   0  0  0  0  0  0  0  0  0  0  0  0
    4.0597    5.2254    0.1656 H   0  0  0  0  0  0  0  0  0  0  0  0
    3.1720    5.7771   -1.2771 H   0  0  0  0  0  0  0  0  0  0  0  0
    0.6091    6.2031   -0.2888 H   0  0  0  0  0  0  0  0  0  0  0  0
    0.6052    5.0180   -1.5504 H   0  0  0  0  0  0  0  0  0  0  0  0
   -3.2158    4.5699    0.3149 H   0  0  0  0  0  0  0  0  0  0  0  0
   -1.8004    2.6232    1.1238 H   0  0  0  0  0  0  0  0  0  0  0  0
   -2.7108    1.7307   -0.2464 H   0  0  0  0  0  0  0  0  0  0  0  0
   -4.3597   -0.6054   -0.8703 H   0  0  0  0  0  0  0  0  0  0  0  0
   -3.2732   -2.5050   -1.0435 H   0  0  0  0  0  0  0  0  0  0  0  0
   -2.0128   -3.0422    1.6936 H   0  0  0  0  0  0  0  0  0  0  0  0
   -3.1993   -5.2132    1.5096 H   0  0  0  0  0  0  0  0  0  0  0  0
   -3.7942   -4.7847   -0.1024 H   0  0  0  0  0  0  0  0  0  0  0  0
   -2.0667   -5.0483    0.1681 H   0  0  0  0  0  0  0  0  0  0  0  0
   -4.3773   -3.3077    2.4647 H   0  0  0  0  0  0  0  0  0  0  0  0
   -3.9971   -1.6479    2.0218 H   0  0  0  0  0  0  0  0  0  0  0  0
   -4.9469   -2.6617    0.9169 H   0  0  0  0  0  0  0  0  0  0  0  0
    0.4117   -0.4744   -3.1991 H   0  0  0  0  0  0  0  0  0  0  0  0
    1.3009   -1.1595   -1.8524 H   0  0  0  0  0  0  0  0  0  0  0  0
    2.7940   -0.3424   -3.6453 H   0  0  0  0  0  0  0  0  0  0  0  0
    3.0221   -2.0679   -3.3533 H   0  0  0  0  0  0  0  0  0  0  0  0
    2.4652   -4.1664   -9.0834 H   0  0  0  0  0  0  0  0  0  0  0  0
    1.1560   -4.2656  -10.2863 H   0  0  0  0  0  0  0  0  0  0  0  0
    2.7305   -4.8954  -10.6744 H   0  0  0  0  0  0  0  0  0  0  0  0
    4.5202   -2.6425   -9.7218 H   0  0  0  0  0  0  0  0  0  0  0  0
    4.5195   -3.5679  -11.2306 H   0  0  0  0  0  0  0  0  0  0  0  0
    4.4358   -1.8326  -11.3053 H   0  0  0  0  0  0  0  0  0  0  0  0
    1.7501    0.5444  -10.4680 H   0  0  0  0  0  0  0  0  0  0  0  0
    3.3916   -0.0339  -10.6628 H   0  0  0  0  0  0  0  0  0  0  0  0
    2.1736   -0.3917  -11.9072 H   0  0  0  0  0  0  0  0  0  0  0  0
    0.0026   -2.5417   -9.6079 H   0  0  0  0  0  0  0  0  0  0  0  0
   -0.0906   -0.8178   -9.9033 H   0  0  0  0  0  0  0  0  0  0  0  0
    0.1206   -1.9209  -11.2689 H   0  0  0  0  0  0  0  0  0  0  0  0
    1.0673   -2.9822   -6.4348 H   0  0  0  0  0  0  0  0  0  0  0  0
    1.9357   -3.6973   -5.0826 H   0  0  0  0  0  0  0  0  0  0  0  0
   -0.4911   -3.8482   -4.7176 H   0  0  0  0  0  0  0  0  0  0  0  0
   -0.6755   -2.1140   -4.9950 H   0  0  0  0  0  0  0  0  0  0  0  0
    0.0598   -2.0991    0.6584 H   0  0  0  0  0  0  0  0  0  0  0  0
   -0.1467   -3.8497    0.4155 H   0  0  0  0  0  0  0  0  0  0  0  0
    0.9283   -2.9315   -0.6270 H   0  0  0  0  0  0  0  0  0  0  0  0
   -5.5736    1.5508   -1.2994 H   0  0  0  0  0  0  0  0  0  0  0  0
   -4.6849    3.0499   -1.0415 H   0  0  0  0  0  0  0  0  0  0  0  0
   -4.5124    2.6405   -3.3510 H   0  0  0  0  0  0  0  0  0  0  0  0
   -2.3104    3.1961   -2.3345 H   0  0  0  0  0  0  0  0  0  0  0  0
   -1.9771    1.4409   -2.1203 H   0  0  0  0  0  0  0  0  0  0  0  0
   -1.9795    0.7599   -5.7831 H   0  0  0  0  0  0  0  0  0  0  0  0
   -1.7259   -0.0263   -4.2102 H   0  0  0  0  0  0  0  0  0  0  0  0
   -4.3290    1.2423   -5.2350 H   0  0  0  0  0  0  0  0  0  0  0  0
   -4.0000   -0.4787   -4.9927 H   0  0  0  0  0  0  0  0  0  0  0  0
   -5.3107    2.6230    3.3380 H   0  0  0  0  0  0  0  0  0  0  0  0
   -3.7310    3.0676    4.0083 H   0  0  0  0  0  0  0  0  0  0  0  0
   -5.3991    4.6701    1.9840 H   0  0  0  0  0  0  0  0  0  0  0  0
   -5.0931    5.1245    3.6633 H   0  0  0  0  0  0  0  0  0  0  0  0
   -2.7272    5.4747    3.2154 H   0  0  0  0  0  0  0  0  0  0  0  0
   -3.6366    6.3409    1.9840 H   0  0  0  0  0  0  0  0  0  0  0  0
    2.1041    2.5106   -6.3693 H   0  0  0  0  0  0  0  0  0  0  0  0
   -0.3254    2.1764   -6.2695 H   0  0  0  0  0  0  0  0  0  0  0  0
   -0.1869    2.6020   -1.9785 H   0  0  0  0  0  0  0  0  0  0  0  0
  1  2  1  0
  2  3  1  0
  2  5  1  0
  3  4  1  0
  5  6  2  0
  5 10  1  0
  6  7  1  0
  7  8  2  0
  8  9  1  0
  9 10  2  0
 10 11  1  0
 11 12  1  0
 11 15  2  0
 12 13  1  0
 12 68  1  0
 13 14  1  0
 15 16  1  0
 15 67  1  0
 16 17  1  0
 17 18  1  0
 17 19  1  0
 17 20  1  0
 20 21  1  0
 21 22  1  0
 22 23  1  0
 22 66  2  0
 23 24  1  0
 23 65  1  0
 24 25  1  0
 25 26  1  0
 25 63  1  0
 26 27  1  0
 26 62  2  0
 27 28  1  0
 27 55  1  0
 28 29  1  0
 29 30  1  0
 29 54  2  0
 30 31  1  0
 30 34  1  0
 31 32  1  0
 31 33  1  0
 34 35  1  0
 34 53  1  0
 35 36  1  0
 35 52  2  0
 36 37  1  0
 36 51  1  0
 36 73  1  0
 37 38  1  0
 38 39  1  0
 39 40  1  0
 39 50  1  0
 40 41  1  0
 40 49  2  0
 42 43  1  0
 43 44  1  0
 43 47  1  0
 43 48  1  0
 44 45  1  0
 44 46  1  0
 50 51  1  0
 55 56  1  0
 56 57  1  0
 56 61  1  0
 57 58  1  0
 58 59  1  0
 58 71  1  0
 59 60  1  0
 60 61  1  0
 63 64  1  0
 64 65  1  0
 67 68  2  0
 67 72  1  0
 68 69  1  0
 69 70  2  0
 70 71  1  0
 71 72  2  0
 41 42  3  0
  1 74  1  0
  1 75  1  0
  1 76  1  0
  2 77  1  1
  4 78  1  0
  4 79  1  0
  4 80  1  0
  7 81  1  0
  8 82  1  0
  9 83  1  0
 13 84  1  0
 13 85  1  0
 14 86  1  0
 14 87  1  0
 14 88  1  0
 16 89  1  0
 16 90  1  0
 18 91  1  0
 18 92  1  0
 18 93  1  0
 19 94  1  0
 19 95  1  0
 19 96  1  0
 20 97  1  0
 20 98  1  0
 23 99  1  6
 24100  1  0
 27101  1  1
 28102  1  0
 30103  1  6
 31104  1  0
 32105  1  0
 32106  1  0
 32107  1  0
 33108  1  0
 33109  1  0
 33110  1  0
 37111  1  0
 37112  1  0
 38113  1  0
 38114  1  0
 45115  1  0
 45116  1  0
 45117  1  0
 46118  1  0
 46119  1  0
 46120  1  0
 47121  1  0
 47122  1  0
 47123  1  0
 48124  1  0
 48125  1  0
 48126  1  0
 50127  1  0
 50128  1  0
 51129  1  0
 51130  1  0
 53131  1  0
 53132  1  0
 53133  1  0
 55134  1  0
 55135  1  0
 56136  1  6
 57137  1  0
 57138  1  0
 59139  1  0
 59140  1  0
 60141  1  0
 60142  1  0
 63143  1  0
 63144  1  0
 64145  1  0
 64146  1  0
 65147  1  0
 65148  1  0
 69149  1  0
 70150  1  0
 72151  1  0
M  END
$$$$
