mol_bioactive_21
     RDKit          3D

151157  0  0  0  0  0  0  0  0999 V2000
    5.0880    4.5359    1.7882 C   0  0  0  0  0  0  0  0  0  0  0  0
    4.0257    3.7762    0.9880 C   0  0  2  0  0  0  0  0  0  0  0  0
    4.6437    3.2372   -0.1925 O   0  0  0  0  0  0  0  0  0  0  0  0
    5.1606    1.9286    0.0057 C   0  0  0  0  0  0  0  0  0  0  0  0
    2.8729    4.6983    0.5968 C   0  0  0  0  0  0  0  0  0  0  0  0
    3.2319    5.9107    0.0743 N   0  0  0  0  0  0  0  0  0  0  0  0
    2.2543    6.7590   -0.3040 C   0  0  0  0  0  0  0  0  0  0  0  0
    0.9091    6.4784   -0.1851 C   0  0  0  0  0  0  0  0  0  0  0  0
    0.5444    5.2493    0.3502 C   0  0  0  0  0  0  0  0  0  0  0  0
    1.5220    4.3272    0.7494 C   0  0  0  0  0  0  0  0  0  0  0  0
    1.0705    3.0489    1.3230 C   0  0  0  0  0  0  0  0  0  0  0  0
    1.0696    2.7911    2.6916 N   0  0  0  0  0  0  0  0  0  0  0  0
    1.3968    3.7471    3.7445 C   0  0  0  0  0  0  0  0  0  0  0  0
    2.6661    3.4155    4.5144 C   0  0  0  0  0  0  0  0  0  0  0  0
    0.4096    1.9836    0.7035 C   0  0  0  0  0  0  0  0  0  0  0  0
   -0.1238    1.8814   -0.7130 C   0  0  0  0  0  0  0  0  0  0  0  0
    0.8146    1.4202   -1.8568 C   0  0  0  0  0  0  0  0  0  0  0  0
    1.8919    2.4805   -2.1274 C   0  0  0  0  0  0  0  0  0  0  0  0
   -0.0396    1.3044   -3.1416 C   0  0  0  0  0  0  0  0  0  0  0  0
    1.5173    0.0681   -1.5801 C   0  0  0  0  0  0  0  0  0  0  0  0
    0.6248   -1.0531   -1.7471 O   0  0  0  0  0  0  0  0  0  0  0  0
    1.2603   -2.2200   -2.0802 C   0  0  0  0  0  0  0  0  0  0  0  0
    0.2862   -3.3677   -2.3846 C   0  0  1  0  0  0  0  0  0  0  0  0
   -1.0271   -2.8781   -2.8389 N   0  0  0  0  0  0  0  0  0  0  0  0
   -1.9134   -3.9542   -3.1101 N   0  0  0  0  0  0  0  0  0  0  0  0
   -2.9259   -4.4163   -2.2552 C   0  0  0  0  0  0  0  0  0  0  0  0
   -2.9966   -3.8113   -0.8398 C   0  0  1  0  0  0  0  0  0  0  0  0
   -4.3578   -3.4601   -0.4741 N   0  0  0  0  0  0  0  0  0  0  0  0
   -4.8679   -2.2171   -0.7791 C   0  0  0  0  0  0  0  0  0  0  0  0
   -6.2897   -1.9345   -0.2219 C   0  0  2  0  0  0  0  0  0  0  0  0
   -7.4061   -2.3249   -1.2258 C   0  0  0  0  0  0  0  0  0  0  0  0
   -8.7908   -2.1714   -0.5791 C   0  0  0  0  0  0  0  0  0  0  0  0
   -7.2690   -3.7679   -1.7292 C   0  0  0  0  0  0  0  0  0  0  0  0
   -6.3000   -0.5117    0.2261 N   0  0  0  0  0  0  0  0  0  0  0  0
   -5.7248   -0.2641    1.4789 C   0  0  0  0  0  0  0  0  0  0  0  0
   -5.3303    1.1769    1.8859 C   0  0  0  0  0  0  0  0  0  0  0  0
   -4.1113    1.6435    1.0853 C   0  0  0  0  0  0  0  0  0  0  0  0
   -3.6744    3.0344    1.5201 C   0  0  0  0  0  0  0  0  0  0  0  0
   -3.4608    3.1214    2.9566 N   0  0  0  0  0  0  0  0  0  0  0  0
   -2.5627    4.0877    3.4077 C   0  0  0  0  0  0  0  0  0  0  0  0
   -2.3782    4.2648    4.8317 C   0  0  0  0  0  0  0  0  0  0  0  0
   -2.1504    4.4329    6.0011 C   0  0  0  0  0  0  0  0  0  0  0  0
   -1.8007    4.6634    7.4277 C   0  0  0  0  0  0  0  0  0  0  0  0
   -1.9746    3.3893    8.1751 N   0  0  0  0  0  0  0  0  0  0  0  0
   -3.3679    2.9414    8.2726 C   0  0  0  0  0  0  0  0  0  0  0  0
   -1.3758    3.3790    9.5118 C   0  0  0  0  0  0  0  0  0  0  0  0
   -0.3204    5.1233    7.4344 C   0  0  0  0  0  0  0  0  0  0  0  0
   -2.6627    5.8267    7.9630 C   0  0  0  0  0  0  0  0  0  0  0  0
   -1.9002    4.8055    2.6661 O   0  0  0  0  0  0  0  0  0  0  0  0
   -4.5361    2.6166    3.8034 C   0  0  0  0  0  0  0  0  0  0  0  0
   -4.9961    1.2294    3.3824 C   0  0  0  0  0  0  0  0  0  0  0  0
   -5.4799   -1.2059    2.2439 O   0  0  0  0  0  0  0  0  0  0  0  0
   -6.5741    0.5234   -0.7719 C   0  0  0  0  0  0  0  0  0  0  0  0
   -4.2233   -1.4018   -1.4399 O   0  0  0  0  0  0  0  0  0  0  0  0
   -2.3754   -4.8125    0.1551 C   0  0  0  0  0  0  0  0  0  0  0  0
   -2.1274   -4.2523    1.5677 C   0  0  1  0  0  0  0  0  0  0  0  0
   -1.4935   -2.8531    1.5253 C   0  0  0  0  0  0  0  0  0  0  0  0
   -1.2528   -2.3110    2.8746 N   0  0  0  0  0  0  0  0  0  0  0  0
   -2.4962   -2.3573    3.6924 C   0  0  0  0  0  0  0  0  0  0  0  0
   -3.1440   -3.7553    3.6326 C   0  0  0  0  0  0  0  0  0  0  0  0
   -3.3744   -4.2100    2.2844 O   0  0  0  0  0  0  0  0  0  0  0  0
   -3.6897   -5.3341   -2.5753 O   0  0  0  0  0  0  0  0  0  0  0  0
   -1.5005   -4.7571   -4.2613 C   0  0  0  0  0  0  0  0  0  0  0  0
   -0.1247   -5.3541   -3.9552 C   0  0  0  0  0  0  0  0  0  0  0  0
    0.8644   -4.2678   -3.4990 C   0  0  0  0  0  0  0  0  0  0  0  0
    2.4792   -2.3632   -2.0865 O   0  0  0  0  0  0  0  0  0  0  0  0
    0.1674    1.0037    1.7217 C   0  0  0  0  0  0  0  0  0  0  0  0
    0.5534    1.5337    2.9451 C   0  0  0  0  0  0  0  0  0  0  0  0
    0.3503    0.8296    4.1436 C   0  0  0  0  0  0  0  0  0  0  0  0
   -0.2371   -0.4444    4.0834 C   0  0  0  0  0  0  0  0  0  0  0  0
   -0.6505   -1.0222    2.8798 C   0  0  0  0  0  0  0  0  0  0  0  0
   -0.4264   -0.2773    1.7047 C   0  0  0  0  0  0  0  0  0  0  0  0
   -6.3613    2.0562    1.6827 F   0  0  0  0  0  0  0  0  0  0  0  0
    4.6494    5.0788    2.6311 H   0  0  0  0  0  0  0  0  0  0  0  0
    5.8415    3.8450    2.1795 H   0  0  0  0  0  0  0  0  0  0  0  0
    5.6253    5.2528    1.1569 H   0  0  0  0  0  0  0  0  0  0  0  0
    3.6505    2.9562    1.6065 H   0  0  0  0  0  0  0  0  0  0  0  0
    5.9254    1.9241    0.7874 H   0  0  0  0  0  0  0  0  0  0  0  0
    4.3548    1.2340    0.2625 H   0  0  0  0  0  0  0  0  0  0  0  0
    5.6171    1.5957   -0.9300 H   0  0  0  0  0  0  0  0  0  0  0  0
    2.5962    7.7037   -0.7161 H   0  0  0  0  0  0  0  0  0  0  0  0
    0.1592    7.1975   -0.4934 H   0  0  0  0  0  0  0  0  0  0  0  0
   -0.5105    5.0135    0.4711 H   0  0  0  0  0  0  0  0  0  0  0  0
    1.4775    4.7461    3.3083 H   0  0  0  0  0  0  0  0  0  0  0  0
    0.5424    3.7728    4.4285 H   0  0  0  0  0  0  0  0  0  0  0  0
    2.5744    2.4770    5.0677 H   0  0  0  0  0  0  0  0  0  0  0  0
    3.5283    3.3158    3.8535 H   0  0  0  0  0  0  0  0  0  0  0  0
    2.8802    4.2072    5.2393 H   0  0  0  0  0  0  0  0  0  0  0  0
   -0.9925    1.2089   -0.6901 H   0  0  0  0  0  0  0  0  0  0  0  0
   -0.5514    2.8581   -0.9770 H   0  0  0  0  0  0  0  0  0  0  0  0
    2.5993    2.5201   -1.3028 H   0  0  0  0  0  0  0  0  0  0  0  0
    2.4648    2.2466   -3.0323 H   0  0  0  0  0  0  0  0  0  0  0  0
    1.4561    3.4757   -2.2647 H   0  0  0  0  0  0  0  0  0  0  0  0
   -0.8736    0.6055   -3.0130 H   0  0  0  0  0  0  0  0  0  0  0  0
   -0.4669    2.2751   -3.4199 H   0  0  0  0  0  0  0  0  0  0  0  0
    0.5634    0.9526   -3.9867 H   0  0  0  0  0  0  0  0  0  0  0  0
    2.3533   -0.0277   -2.2857 H   0  0  0  0  0  0  0  0  0  0  0  0
    1.9355    0.0331   -0.5686 H   0  0  0  0  0  0  0  0  0  0  0  0
    0.1725   -3.9352   -1.4548 H   0  0  0  0  0  0  0  0  0  0  0  0
   -1.4244   -2.1365   -2.2601 H   0  0  0  0  0  0  0  0  0  0  0  0
   -2.4207   -2.8915   -0.8330 H   0  0  0  0  0  0  0  0  0  0  0  0
   -4.8781   -4.0961    0.1229 H   0  0  0  0  0  0  0  0  0  0  0  0
   -6.4166   -2.5673    0.6667 H   0  0  0  0  0  0  0  0  0  0  0  0
   -7.3569   -1.6768   -2.1088 H   0  0  0  0  0  0  0  0  0  0  0  0
   -8.9655   -1.1528   -0.2219 H   0  0  0  0  0  0  0  0  0  0  0  0
   -9.5813   -2.4052   -1.3007 H   0  0  0  0  0  0  0  0  0  0  0  0
   -8.9036   -2.8495    0.2744 H   0  0  0  0  0  0  0  0  0  0  0  0
   -7.2277   -4.4790   -0.8969 H   0  0  0  0  0  0  0  0  0  0  0  0
   -8.1203   -4.0408   -2.3627 H   0  0  0  0  0  0  0  0  0  0  0  0
   -6.3682   -3.8925   -2.3377 H   0  0  0  0  0  0  0  0  0  0  0  0
   -3.2857    0.9345    1.2272 H   0  0  0  0  0  0  0  0  0  0  0  0
   -4.3160    1.6706    0.0113 H   0  0  0  0  0  0  0  0  0  0  0  0
   -2.7568    3.3051    0.9855 H   0  0  0  0  0  0  0  0  0  0  0  0
   -4.4346    3.7791    1.2544 H   0  0  0  0  0  0  0  0  0  0  0  0
   -3.9679    3.5796    8.9303 H   0  0  0  0  0  0  0  0  0  0  0  0
   -3.8562    2.8963    7.2945 H   0  0  0  0  0  0  0  0  0  0  0  0
   -3.4067    1.9210    8.6725 H   0  0  0  0  0  0  0  0  0  0  0  0
   -1.8015    4.1449   10.1682 H   0  0  0  0  0  0  0  0  0  0  0  0
   -1.5288    2.4046    9.9920 H   0  0  0  0  0  0  0  0  0  0  0  0
   -0.2903    3.5109    9.4707 H   0  0  0  0  0  0  0  0  0  0  0  0
    0.0005    5.4643    8.4247 H   0  0  0  0  0  0  0  0  0  0  0  0
    0.3505    4.3166    7.1135 H   0  0  0  0  0  0  0  0  0  0  0  0
   -0.1623    5.9611    6.7433 H   0  0  0  0  0  0  0  0  0  0  0  0
   -2.4361    6.0514    9.0106 H   0  0  0  0  0  0  0  0  0  0  0  0
   -2.4820    6.7440    7.3882 H   0  0  0  0  0  0  0  0  0  0  0  0
   -3.7357    5.6188    7.8823 H   0  0  0  0  0  0  0  0  0  0  0  0
   -4.2221    2.5817    4.8498 H   0  0  0  0  0  0  0  0  0  0  0  0
   -5.3637    3.3337    3.7398 H   0  0  0  0  0  0  0  0  0  0  0  0
   -5.8763    0.9513    3.9747 H   0  0  0  0  0  0  0  0  0  0  0  0
   -4.2033    0.5094    3.6209 H   0  0  0  0  0  0  0  0  0  0  0  0
   -6.5869    1.5252   -0.3502 H   0  0  0  0  0  0  0  0  0  0  0  0
   -5.8145    0.4903   -1.5563 H   0  0  0  0  0  0  0  0  0  0  0  0
   -7.5574    0.3590   -1.2165 H   0  0  0  0  0  0  0  0  0  0  0  0
   -3.0200   -5.6984    0.2291 H   0  0  0  0  0  0  0  0  0  0  0  0
   -1.4147   -5.1577   -0.2461 H   0  0  0  0  0  0  0  0  0  0  0  0
   -1.4641   -4.9504    2.0962 H   0  0  0  0  0  0  0  0  0  0  0  0
   -0.5542   -2.9123    0.9616 H   0  0  0  0  0  0  0  0  0  0  0  0
   -2.1921   -2.1705    1.0299 H   0  0  0  0  0  0  0  0  0  0  0  0
   -2.2944   -2.1199    4.7421 H   0  0  0  0  0  0  0  0  0  0  0  0
   -3.2048   -1.6207    3.3007 H   0  0  0  0  0  0  0  0  0  0  0  0
   -2.5182   -4.4934    4.1488 H   0  0  0  0  0  0  0  0  0  0  0  0
   -4.1136   -3.7324    4.1397 H   0  0  0  0  0  0  0  0  0  0  0  0
   -2.2211   -5.5535   -4.4690 H   0  0  0  0  0  0  0  0  0  0  0  0
   -1.4565   -4.1001   -5.1378 H   0  0  0  0  0  0  0  0  0  0  0  0
   -0.2228   -6.0968   -3.1538 H   0  0  0  0  0  0  0  0  0  0  0  0
    0.2672   -5.8736   -4.8357 H   0  0  0  0  0  0  0  0  0  0  0  0
    1.1406   -3.6520   -4.3663 H   0  0  0  0  0  0  0  0  0  0  0  0
    1.7889   -4.7464   -3.1530 H   0  0  0  0  0  0  0  0  0  0  0  0
    0.6289    1.2462    5.1058 H   0  0  0  0  0  0  0  0  0  0  0  0
   -0.3567   -0.9926    5.0146 H   0  0  0  0  0  0  0  0  0  0  0  0
   -0.7260   -0.6463    0.7326 H   0  0  0  0  0  0  0  0  0  0  0  0
  1  2  1  0
  2  3  1  0
  2  5  1  0
  3  4  1  0
  5  6  2  0
  5 10  1  0
  6  7  1  0
  7  8  2  0
  8  9  1  0
  9 10  2  0
 10 11  1  0
 11 12  1  0
 11 15  2  0
 12 13  1  0
 12 68  1  0
 13 14  1  0
 15 16  1  0
 15 67  1  0
 16 17  1  0
 17 18  1  0
 17 19  1  0
 17 20  1  0
 20 21  1  0
 21 22  1  0
 22 23  1  0
 22 66  2  0
 23 24  1  0
 23 65  1  0
 24 25  1  0
 25 26  1  0
 25 63  1  0
 26 27  1  0
 26 62  2  0
 27 28  1  0
 27 55  1  0
 28 29  1  0
 29 30  1  0
 29 54  2  0
 30 31  1  0
 30 34  1  0
 31 32  1  0
 31 33  1  0
 34 35  1  0
 34 53  1  0
 35 36  1  0
 35 52  2  0
 36 37  1  0
 36 51  1  0
 36 73  1  0
 37 38  1  0
 38 39  1  0
 39 40  1  0
 39 50  1  0
 40 41  1  0
 40 49  2  0
 42 43  1  0
 43 44  1  0
 43 47  1  0
 43 48  1  0
 44 45  1  0
 44 46  1  0
 50 51  1  0
 55 56  1  0
 56 57  1  0
 56 61  1  0
 57 58  1  0
 58 59  1  0
 58 71  1  0
 59 60  1  0
 60 61  1  0
 63 64  1  0
 64 65  1  0
 67 68  2  0
 67 72  1  0
 68 69  1  0
 69 70  2  0
 70 71  1  0
 71 72  2  0
 41 42  3  0
  1 74  1  0
  1 75  1  0
  1 76  1  0
  2 77  1  1
  4 78  1  0
  4 79  1  0
  4 80  1  0
  7 81  1  0
  8 82  1  0
  9 83  1  0
 13 84  1  0
 13 85  1  0
 14 86  1  0
 14 87  1  0
 14 88  1  0
 16 89  1  0
 16 90  1  0
 18 91  1  0
 18 92  1  0
 18 93  1  0
 19 94  1  0
 19 95  1  0
 19 96  1  0
 20 97  1  0
 20 98  1  0
 23 99  1  1
 24100  1  0
 27101  1  6
 28102  1  0
 30103  1  1
 31104  1  0
 32105  1  0
 32106  1  0
 32107  1  0
 33108  1  0
 33109  1  0
 33110  1  0
 37111  1  0
 37112  1  0
 38113  1  0
 38114  1  0
 45115  1  0
 45116  1  0
 45117  1  0
 46118  1  0
 46119  1  0
 46120  1  0
 47121  1  0
 47122  1  0
 47123  1  0
 48124  1  0
 48125  1  0
 48126  1  0
 50127  1  0
 50128  1  0
 51129  1  0
 51130  1  0
 53131  1  0
 53132  1  0
 53133  1  0
 55134  1  0
 55135  1  0
 56136  1  1
 57137  1  0
 57138  1  0
 59139  1  0
 59140  1  0
 60141  1  0
 60142  1  0
 63143  1  0
 63144  1  0
 64145  1  0
 64146  1  0
 65147  1  0
 65148  1  0
 69149  1  0
 70150  1  0
 72151  1  0
M  END
$$$$
