mol_bioactive_40
     RDKit          3D

151157  0  0  0  0  0  0  0  0999 V2000
    4.5776    3.2397   -2.8087 C   0  0  0  0  0  0  0  0  0  0  0  0
    4.2921    1.7476   -2.6532 C   0  0  2  0  0  0  0  0  0  0  0  0
    2.9288    1.5021   -2.2827 O   0  0  0  0  0  0  0  0  0  0  0  0
    2.0111    1.6749   -3.3504 C   0  0  0  0  0  0  0  0  0  0  0  0
    5.2758    1.1025   -1.6839 C   0  0  0  0  0  0  0  0  0  0  0  0
    6.2747    0.3989   -2.3076 N   0  0  0  0  0  0  0  0  0  0  0  0
    7.2326   -0.1716   -1.5464 C   0  0  0  0  0  0  0  0  0  0  0  0
    7.2784   -0.0702   -0.1726 C   0  0  0  0  0  0  0  0  0  0  0  0
    6.2753    0.6557    0.4568 C   0  0  0  0  0  0  0  0  0  0  0  0
    5.2428    1.2540   -0.2856 C   0  0  0  0  0  0  0  0  0  0  0  0
    4.2164    1.9987    0.4569 C   0  0  0  0  0  0  0  0  0  0  0  0
    4.3948    3.2984    0.9100 N   0  0  0  0  0  0  0  0  0  0  0  0
    5.5882    4.1154    0.7249 C   0  0  0  0  0  0  0  0  0  0  0  0
    6.4918    4.1038    1.9457 C   0  0  0  0  0  0  0  0  0  0  0  0
    2.9572    1.5760    0.8866 C   0  0  0  0  0  0  0  0  0  0  0  0
    2.2935    0.2350    0.6532 C   0  0  0  0  0  0  0  0  0  0  0  0
    2.3867   -0.8315    1.7861 C   0  0  0  0  0  0  0  0  0  0  0  0
    1.7717   -2.1390    1.2366 C   0  0  0  0  0  0  0  0  0  0  0  0
    3.8547   -1.1251    2.1425 C   0  0  0  0  0  0  0  0  0  0  0  0
    1.6576   -0.4188    3.0891 C   0  0  0  0  0  0  0  0  0  0  0  0
    0.2148   -0.5009    3.0026 O   0  0  0  0  0  0  0  0  0  0  0  0
   -0.3622   -1.5194    3.7223 C   0  0  0  0  0  0  0  0  0  0  0  0
   -1.8919   -1.3833    3.7696 C   0  0  1  0  0  0  0  0  0  0  0  0
   -2.4436   -1.0967    2.4345 N   0  0  0  0  0  0  0  0  0  0  0  0
   -3.8602   -0.9553    2.4825 N   0  0  0  0  0  0  0  0  0  0  0  0
   -4.5809    0.2211    2.2325 C   0  0  0  0  0  0  0  0  0  0  0  0
   -3.7916    1.5423    2.1742 C   0  0  1  0  0  0  0  0  0  0  0  0
   -4.3407    2.4611    1.1840 N   0  0  0  0  0  0  0  0  0  0  0  0
   -3.8921    2.4489   -0.1185 C   0  0  0  0  0  0  0  0  0  0  0  0
   -4.4897    3.5524   -1.0314 C   0  0  2  0  0  0  0  0  0  0  0  0
   -5.6877    3.0207   -1.8623 C   0  0  0  0  0  0  0  0  0  0  0  0
   -6.3079    4.1468   -2.7027 C   0  0  0  0  0  0  0  0  0  0  0  0
   -6.7848    2.4164   -0.9735 C   0  0  0  0  0  0  0  0  0  0  0  0
   -3.3843    4.1553   -1.8341 N   0  0  0  0  0  0  0  0  0  0  0  0
   -2.7112    5.2328   -1.2504 C   0  0  0  0  0  0  0  0  0  0  0  0
   -1.3595    5.7332   -1.8304 C   0  0  0  0  0  0  0  0  0  0  0  0
   -0.2416    4.7250   -1.5415 C   0  0  0  0  0  0  0  0  0  0  0  0
    1.1206    5.2633   -1.9591 C   0  0  0  0  0  0  0  0  0  0  0  0
    1.3763    6.5767   -1.3868 N   0  0  0  0  0  0  0  0  0  0  0  0
    2.6930    6.9126   -1.0824 C   0  0  0  0  0  0  0  0  0  0  0  0
    2.9417    8.1774   -0.4247 C   0  0  0  0  0  0  0  0  0  0  0  0
    3.1922    9.1986    0.1574 C   0  0  0  0  0  0  0  0  0  0  0  0
    3.5433   10.4384    0.8935 C   0  0  0  0  0  0  0  0  0  0  0  0
    4.9116   10.8557    0.4982 N   0  0  0  0  0  0  0  0  0  0  0  0
    5.4929   11.9250    1.3087 C   0  0  0  0  0  0  0  0  0  0  0  0
    5.0491   11.2046   -0.9214 C   0  0  0  0  0  0  0  0  0  0  0  0
    3.4850   10.0753    2.3986 C   0  0  0  0  0  0  0  0  0  0  0  0
    2.4614   11.5029    0.6177 C   0  0  0  0  0  0  0  0  0  0  0  0
    3.6569    6.1930   -1.3051 O   0  0  0  0  0  0  0  0  0  0  0  0
    0.3555    7.5845   -1.6369 C   0  0  0  0  0  0  0  0  0  0  0  0
   -1.0153    7.0971   -1.2050 C   0  0  0  0  0  0  0  0  0  0  0  0
   -3.1735    5.7720   -0.2351 O   0  0  0  0  0  0  0  0  0  0  0  0
   -2.8766    3.4058   -2.9846 C   0  0  0  0  0  0  0  0  0  0  0  0
   -3.0836    1.6106   -0.5141 O   0  0  0  0  0  0  0  0  0  0  0  0
   -3.7753    2.1692    3.5862 C   0  0  0  0  0  0  0  0  0  0  0  0
   -2.8845    3.4166    3.7308 C   0  0  1  0  0  0  0  0  0  0  0  0
   -1.4797    3.1635    3.1560 C   0  0  0  0  0  0  0  0  0  0  0  0
   -0.6188    4.3632    3.1963 N   0  0  0  0  0  0  0  0  0  0  0  0
   -1.3115    5.5251    2.5820 C   0  0  0  0  0  0  0  0  0  0  0  0
   -2.7162    5.7034    3.1889 C   0  0  0  0  0  0  0  0  0  0  0  0
   -3.5222    4.5182    3.0605 O   0  0  0  0  0  0  0  0  0  0  0  0
   -5.8161    0.2326    2.1705 O   0  0  0  0  0  0  0  0  0  0  0  0
   -4.5551   -2.1895    2.8504 C   0  0  0  0  0  0  0  0  0  0  0  0
   -4.0706   -2.6308    4.2337 C   0  0  0  0  0  0  0  0  0  0  0  0
   -2.5369   -2.6822    4.2917 C   0  0  0  0  0  0  0  0  0  0  0  0
    0.2612   -2.3828    4.3295 O   0  0  0  0  0  0  0  0  0  0  0  0
    2.3405    2.7063    1.5108 C   0  0  0  0  0  0  0  0  0  0  0  0
    3.2485    3.7536    1.5326 C   0  0  0  0  0  0  0  0  0  0  0  0
    2.9253    4.9914    2.1129 C   0  0  0  0  0  0  0  0  0  0  0  0
    1.6411    5.1600    2.6638 C   0  0  0  0  0  0  0  0  0  0  0  0
    0.6759    4.1489    2.6360 C   0  0  0  0  0  0  0  0  0  0  0  0
    1.0595    2.9217    2.0594 C   0  0  0  0  0  0  0  0  0  0  0  0
   -1.4314    5.9328   -3.1851 F   0  0  0  0  0  0  0  0  0  0  0  0
    4.2686    3.7904   -1.9209 H   0  0  0  0  0  0  0  0  0  0  0  0
    5.6415    3.4326   -2.9889 H   0  0  0  0  0  0  0  0  0  0  0  0
    4.0155    3.6636   -3.6471 H   0  0  0  0  0  0  0  0  0  0  0  0
    4.4613    1.2726   -3.6299 H   0  0  0  0  0  0  0  0  0  0  0  0
    1.0142    1.3973   -2.9937 H   0  0  0  0  0  0  0  0  0  0  0  0
    1.9716    2.7205   -3.6674 H   0  0  0  0  0  0  0  0  0  0  0  0
    2.2671    1.0327   -4.1979 H   0  0  0  0  0  0  0  0  0  0  0  0
    7.9883   -0.7292   -2.0931 H   0  0  0  0  0  0  0  0  0  0  0  0
    8.0684   -0.5439    0.3970 H   0  0  0  0  0  0  0  0  0  0  0  0
    6.2870    0.7473    1.5411 H   0  0  0  0  0  0  0  0  0  0  0  0
    6.1311    3.7578   -0.1544 H   0  0  0  0  0  0  0  0  0  0  0  0
    5.2659    5.1359    0.5021 H   0  0  0  0  0  0  0  0  0  0  0  0
    5.9768    4.4997    2.8276 H   0  0  0  0  0  0  0  0  0  0  0  0
    6.8270    3.0913    2.1854 H   0  0  0  0  0  0  0  0  0  0  0  0
    7.3780    4.7209    1.7663 H   0  0  0  0  0  0  0  0  0  0  0  0
    1.2364    0.4114    0.4137 H   0  0  0  0  0  0  0  0  0  0  0  0
    2.7209   -0.1977   -0.2619 H   0  0  0  0  0  0  0  0  0  0  0  0
    1.7624   -2.9263    1.9984 H   0  0  0  0  0  0  0  0  0  0  0  0
    0.7436   -1.9870    0.8914 H   0  0  0  0  0  0  0  0  0  0  0  0
    2.3481   -2.5189    0.3851 H   0  0  0  0  0  0  0  0  0  0  0  0
    4.3387   -0.2571    2.6001 H   0  0  0  0  0  0  0  0  0  0  0  0
    3.9267   -1.9499    2.8631 H   0  0  0  0  0  0  0  0  0  0  0  0
    4.4242   -1.4250    1.2561 H   0  0  0  0  0  0  0  0  0  0  0  0
    2.0256   -1.0211    3.9286 H   0  0  0  0  0  0  0  0  0  0  0  0
    1.9049    0.6069    3.3686 H   0  0  0  0  0  0  0  0  0  0  0  0
   -2.1098   -0.5572    4.4565 H   0  0  0  0  0  0  0  0  0  0  0  0
   -1.9508   -0.3476    1.9519 H   0  0  0  0  0  0  0  0  0  0  0  0
   -2.7784    1.3173    1.8567 H   0  0  0  0  0  0  0  0  0  0  0  0
   -4.8878    3.2490    1.5208 H   0  0  0  0  0  0  0  0  0  0  0  0
   -4.8913    4.3314   -0.3694 H   0  0  0  0  0  0  0  0  0  0  0  0
   -5.3529    2.2239   -2.5359 H   0  0  0  0  0  0  0  0  0  0  0  0
   -6.6625    4.9638   -2.0653 H   0  0  0  0  0  0  0  0  0  0  0  0
   -5.5886    4.5626   -3.4150 H   0  0  0  0  0  0  0  0  0  0  0  0
   -7.1600    3.7742   -3.2802 H   0  0  0  0  0  0  0  0  0  0  0  0
   -7.1312    3.1361   -0.2255 H   0  0  0  0  0  0  0  0  0  0  0  0
   -7.6470    2.1113   -1.5767 H   0  0  0  0  0  0  0  0  0  0  0  0
   -6.4265    1.5213   -0.4548 H   0  0  0  0  0  0  0  0  0  0  0  0
   -0.2271    4.4883   -0.4713 H   0  0  0  0  0  0  0  0  0  0  0  0
   -0.4065    3.7837   -2.0707 H   0  0  0  0  0  0  0  0  0  0  0  0
    1.8969    4.5578   -1.6447 H   0  0  0  0  0  0  0  0  0  0  0  0
    1.1870    5.3583   -3.0500 H   0  0  0  0  0  0  0  0  0  0  0  0
    5.5760   11.6370    2.3602 H   0  0  0  0  0  0  0  0  0  0  0  0
    6.5205   12.1342    0.9850 H   0  0  0  0  0  0  0  0  0  0  0  0
    4.9259   12.8586    1.2385 H   0  0  0  0  0  0  0  0  0  0  0  0
    6.1122   11.2791   -1.1840 H   0  0  0  0  0  0  0  0  0  0  0  0
    4.6339   10.4398   -1.5859 H   0  0  0  0  0  0  0  0  0  0  0  0
    4.5763   12.1648   -1.1636 H   0  0  0  0  0  0  0  0  0  0  0  0
    3.5620   10.9601    3.0426 H   0  0  0  0  0  0  0  0  0  0  0  0
    2.5380    9.5815    2.6519 H   0  0  0  0  0  0  0  0  0  0  0  0
    4.2891    9.3800    2.6731 H   0  0  0  0  0  0  0  0  0  0  0  0
    2.6332   12.4191    1.1952 H   0  0  0  0  0  0  0  0  0  0  0  0
    2.4037   11.7730   -0.4424 H   0  0  0  0  0  0  0  0  0  0  0  0
    1.4666   11.1293    0.8979 H   0  0  0  0  0  0  0  0  0  0  0  0
    0.5827    8.5203   -1.1210 H   0  0  0  0  0  0  0  0  0  0  0  0
    0.3676    7.8032   -2.7123 H   0  0  0  0  0  0  0  0  0  0  0  0
   -1.7674    7.8384   -1.4980 H   0  0  0  0  0  0  0  0  0  0  0  0
   -1.0317    7.0329   -0.1106 H   0  0  0  0  0  0  0  0  0  0  0  0
   -2.3228    2.5300   -2.6394 H   0  0  0  0  0  0  0  0  0  0  0  0
   -3.7027    3.0846   -3.6226 H   0  0  0  0  0  0  0  0  0  0  0  0
   -2.2169    4.0073   -3.6075 H   0  0  0  0  0  0  0  0  0  0  0  0
   -4.8025    2.4317    3.8716 H   0  0  0  0  0  0  0  0  0  0  0  0
   -3.4340    1.4169    4.3062 H   0  0  0  0  0  0  0  0  0  0  0  0
   -2.8137    3.6714    4.7960 H   0  0  0  0  0  0  0  0  0  0  0  0
   -1.0209    2.3385    3.7169 H   0  0  0  0  0  0  0  0  0  0  0  0
   -1.5855    2.8915    2.1008 H   0  0  0  0  0  0  0  0  0  0  0  0
   -0.7548    6.4563    2.7236 H   0  0  0  0  0  0  0  0  0  0  0  0
   -1.4120    5.3364    1.5106 H   0  0  0  0  0  0  0  0  0  0  0  0
   -2.6513    5.9729    4.2500 H   0  0  0  0  0  0  0  0  0  0  0  0
   -3.2408    6.5146    2.6739 H   0  0  0  0  0  0  0  0  0  0  0  0
   -5.6388   -2.0475    2.8613 H   0  0  0  0  0  0  0  0  0  0  0  0
   -4.3234   -2.9501    2.0948 H   0  0  0  0  0  0  0  0  0  0  0  0
   -4.4290   -1.9158    4.9858 H   0  0  0  0  0  0  0  0  0  0  0  0
   -4.4912   -3.6094    4.4883 H   0  0  0  0  0  0  0  0  0  0  0  0
   -2.1868   -3.5391    3.7010 H   0  0  0  0  0  0  0  0  0  0  0  0
   -2.2219   -2.8682    5.3265 H   0  0  0  0  0  0  0  0  0  0  0  0
    3.6409    5.8082    2.1422 H   0  0  0  0  0  0  0  0  0  0  0  0
    1.4161    6.1115    3.1375 H   0  0  0  0  0  0  0  0  0  0  0  0
    0.3805    2.0828    1.9946 H   0  0  0  0  0  0  0  0  0  0  0  0
  1  2  1  0
  2  3  1  0
  2  5  1  0
  3  4  1  0
  5  6  2  0
  5 10  1  0
  6  7  1  0
  7  8  2  0
  8  9  1  0
  9 10  2  0
 10 11  1  0
 11 12  1  0
 11 15  2  0
 12 13  1  0
 12 68  1  0
 13 14  1  0
 15 16  1  0
 15 67  1  0
 16 17  1  0
 17 18  1  0
 17 19  1  0
 17 20  1  0
 20 21  1  0
 21 22  1  0
 22 23  1  0
 22 66  2  0
 23 24  1  0
 23 65  1  0
 24 25  1  0
 25 26  1  0
 25 63  1  0
 26 27  1  0
 26 62  2  0
 27 28  1  0
 27 55  1  0
 28 29  1  0
 29 30  1  0
 29 54  2  0
 30 31  1  0
 30 34  1  0
 31 32  1  0
 31 33  1  0
 34 35  1  0
 34 53  1  0
 35 36  1  0
 35 52  2  0
 36 37  1  0
 36 51  1  0
 36 73  1  0
 37 38  1  0
 38 39  1  0
 39 40  1  0
 39 50  1  0
 40 41  1  0
 40 49  2  0
 42 43  1  0
 43 44  1  0
 43 47  1  0
 43 48  1  0
 44 45  1  0
 44 46  1  0
 50 51  1  0
 55 56  1  0
 56 57  1  0
 56 61  1  0
 57 58  1  0
 58 59  1  0
 58 71  1  0
 59 60  1  0
 60 61  1  0
 63 64  1  0
 64 65  1  0
 67 68  2  0
 67 72  1  0
 68 69  1  0
 69 70  2  0
 70 71  1  0
 71 72  2  0
 41 42  3  0
  1 74  1  0
  1 75  1  0
  1 76  1  0
  2 77  1  6
  4 78  1  0
  4 79  1  0
  4 80  1  0
  7 81  1  0
  8 82  1  0
  9 83  1  0
 13 84  1  0
 13 85  1  0
 14 86  1  0
 14 87  1  0
 14 88  1  0
 16 89  1  0
 16 90  1  0
 18 91  1  0
 18 92  1  0
 18 93  1  0
 19 94  1  0
 19 95  1  0
 19 96  1  0
 20 97  1  0
 20 98  1  0
 23 99  1  1
 24100  1  0
 27101  1  6
 28102  1  0
 30103  1  1
 31104  1  0
 32105  1  0
 32106  1  0
 32107  1  0
 33108  1  0
 33109  1  0
 33110  1  0
 37111  1  0
 37112  1  0
 38113  1  0
 38114  1  0
 45115  1  0
 45116  1  0
 45117  1  0
 46118  1  0
 46119  1  0
 46120  1  0
 47121  1  0
 47122  1  0
 47123  1  0
 48124  1  0
 48125  1  0
 48126  1  0
 50127  1  0
 50128  1  0
 51129  1  0
 51130  1  0
 53131  1  0
 53132  1  0
 53133  1  0
 55134  1  0
 55135  1  0
 56136  1  1
 57137  1  0
 57138  1  0
 59139  1  0
 59140  1  0
 60141  1  0
 60142  1  0
 63143  1  0
 63144  1  0
 64145  1  0
 64146  1  0
 65147  1  0
 65148  1  0
 69149  1  0
 70150  1  0
 72151  1  0
M  END
$$$$
