mol_bioactive_42
     RDKit          3D

151157  0  0  0  0  0  0  0  0999 V2000
    4.0045    2.5308    3.1244 C   0  0  0  0  0  0  0  0  0  0  0  0
    3.7338    2.9627    1.6865 C   0  0  2  0  0  0  0  0  0  0  0  0
    2.3914    2.6368    1.3133 O   0  0  0  0  0  0  0  0  0  0  0  0
    1.4820    3.7064    1.5197 C   0  0  0  0  0  0  0  0  0  0  0  0
    4.7747    2.3968    0.7280 C   0  0  0  0  0  0  0  0  0  0  0  0
    5.7515    3.2989    0.3959 N   0  0  0  0  0  0  0  0  0  0  0  0
    6.7565    2.8947   -0.4068 C   0  0  0  0  0  0  0  0  0  0  0  0
    6.8665    1.6147   -0.9041 C   0  0  0  0  0  0  0  0  0  0  0  0
    5.8811    0.6974   -0.5597 C   0  0  0  0  0  0  0  0  0  0  0  0
    4.8062    1.0706    0.2626 C   0  0  0  0  0  0  0  0  0  0  0  0
    3.8034    0.0455    0.5882 C   0  0  0  0  0  0  0  0  0  0  0  0
    3.9802   -0.9116    1.5781 N   0  0  0  0  0  0  0  0  0  0  0  0
    5.1753   -1.0826    2.3958 C   0  0  0  0  0  0  0  0  0  0  0  0
    6.0977   -2.1595    1.8491 C   0  0  0  0  0  0  0  0  0  0  0  0
    2.5633   -0.1976   -0.0050 C   0  0  0  0  0  0  0  0  0  0  0  0
    1.9201    0.5423   -1.1596 C   0  0  0  0  0  0  0  0  0  0  0  0
    2.0734   -0.0798   -2.5812 C   0  0  0  0  0  0  0  0  0  0  0  0
    1.4446    0.9068   -3.5910 C   0  0  0  0  0  0  0  0  0  0  0  0
    3.5604   -0.2356   -2.9515 C   0  0  0  0  0  0  0  0  0  0  0  0
    1.3996   -1.4691   -2.7255 C   0  0  0  0  0  0  0  0  0  0  0  0
   -0.0441   -1.3979   -2.7901 O   0  0  0  0  0  0  0  0  0  0  0  0
   -0.6023   -1.7988   -3.9788 C   0  0  0  0  0  0  0  0  0  0  0  0
   -2.1343   -1.8630   -3.8913 C   0  0  1  0  0  0  0  0  0  0  0  0
   -2.6838   -0.6333   -3.2959 N   0  0  0  0  0  0  0  0  0  0  0  0
   -4.1023   -0.6939   -3.2138 N   0  0  0  0  0  0  0  0  0  0  0  0
   -4.8478   -0.9520   -2.0542 C   0  0  0  0  0  0  0  0  0  0  0  0
   -4.0811   -1.3362   -0.7757 C   0  0  1  0  0  0  0  0  0  0  0  0
   -4.5653   -0.5676    0.3593 N   0  0  0  0  0  0  0  0  0  0  0  0
   -4.0125    0.6569    0.6681 C   0  0  0  0  0  0  0  0  0  0  0  0
   -4.6378    1.3746    1.8915 C   0  0  2  0  0  0  0  0  0  0  0  0
   -5.5927    2.5134    1.4465 C   0  0  0  0  0  0  0  0  0  0  0  0
   -6.2674    3.1713    2.6586 C   0  0  0  0  0  0  0  0  0  0  0  0
   -6.6885    2.0042    0.4998 C   0  0  0  0  0  0  0  0  0  0  0  0
   -3.5228    1.7903    2.7904 N   0  0  0  0  0  0  0  0  0  0  0  0
   -3.0518    0.8111    3.6727 C   0  0  0  0  0  0  0  0  0  0  0  0
   -1.7331    1.0273    4.4594 C   0  0  0  0  0  0  0  0  0  0  0  0
   -0.5237    0.8993    3.5252 C   0  0  0  0  0  0  0  0  0  0  0  0
    0.7873    0.9588    4.2979 C   0  0  0  0  0  0  0  0  0  0  0  0
    0.7960   -0.0223    5.3695 N   0  0  0  0  0  0  0  0  0  0  0  0
    1.9650   -0.7252    5.6301 C   0  0  0  0  0  0  0  0  0  0  0  0
    1.8686   -1.8872    6.4864 C   0  0  0  0  0  0  0  0  0  0  0  0
    1.7616   -2.9042    7.1192 C   0  0  0  0  0  0  0  0  0  0  0  0
    1.5982   -4.1872    7.8399 C   0  0  0  0  0  0  0  0  0  0  0  0
    2.8931   -4.7380    8.3251 N   0  0  0  0  0  0  0  0  0  0  0  0
    3.5691   -3.8962    9.3183 C   0  0  0  0  0  0  0  0  0  0  0  0
    3.8394   -5.0773    7.2562 C   0  0  0  0  0  0  0  0  0  0  0  0
    0.6204   -3.9649    9.0175 C   0  0  0  0  0  0  0  0  0  0  0  0
    0.9044   -5.1908    6.8863 C   0  0  0  0  0  0  0  0  0  0  0  0
    3.0550   -0.4696    5.1349 O   0  0  0  0  0  0  0  0  0  0  0  0
   -0.3109    0.0614    6.3129 C   0  0  0  0  0  0  0  0  0  0  0  0
   -1.6455   -0.0085    5.5947 C   0  0  0  0  0  0  0  0  0  0  0  0
   -3.6663   -0.2570    3.7966 O   0  0  0  0  0  0  0  0  0  0  0  0
   -2.7870    3.0123    2.4627 C   0  0  0  0  0  0  0  0  0  0  0  0
   -3.0831    1.1283    0.0117 O   0  0  0  0  0  0  0  0  0  0  0  0
   -4.2174   -2.8571   -0.5525 C   0  0  0  0  0  0  0  0  0  0  0  0
   -3.3334   -3.4391    0.5674 C   0  0  1  0  0  0  0  0  0  0  0  0
   -1.9213   -2.8332    0.5547 C   0  0  0  0  0  0  0  0  0  0  0  0
   -1.0680   -3.3558    1.6410 N   0  0  0  0  0  0  0  0  0  0  0  0
   -1.7531   -3.2135    2.9541 C   0  0  0  0  0  0  0  0  0  0  0  0
   -3.1803   -3.7925    2.8917 C   0  0  0  0  0  0  0  0  0  0  0  0
   -3.9681   -3.2093    1.8369 O   0  0  0  0  0  0  0  0  0  0  0  0
   -6.0841   -0.9470   -2.0511 O   0  0  0  0  0  0  0  0  0  0  0  0
   -4.7537   -0.7025   -4.5245 C   0  0  0  0  0  0  0  0  0  0  0  0
   -4.2829   -1.9452   -5.2831 C   0  0  0  0  0  0  0  0  0  0  0  0
   -2.7492   -2.0330   -5.2975 C   0  0  0  0  0  0  0  0  0  0  0  0
    0.0364   -2.1469   -4.9670 O   0  0  0  0  0  0  0  0  0  0  0  0
    1.9329   -1.2186    0.7737 C   0  0  0  0  0  0  0  0  0  0  0  0
    2.8327   -1.6660    1.7303 C   0  0  0  0  0  0  0  0  0  0  0  0
    2.4966   -2.6966    2.6241 C   0  0  0  0  0  0  0  0  0  0  0  0
    1.2030   -3.2432    2.5632 C   0  0  0  0  0  0  0  0  0  0  0  0
    0.2426   -2.7960    1.6500 C   0  0  0  0  0  0  0  0  0  0  0  0
    0.6468   -1.7959    0.7433 C   0  0  0  0  0  0  0  0  0  0  0  0
   -1.6957    2.2615    5.0560 F   0  0  0  0  0  0  0  0  0  0  0  0
    3.3129    3.0260    3.8144 H   0  0  0  0  0  0  0  0  0  0  0  0
    3.8552    1.4566    3.2563 H   0  0  0  0  0  0  0  0  0  0  0  0
    5.0273    2.7728    3.4320 H   0  0  0  0  0  0  0  0  0  0  0  0
    3.8459    4.0550    1.6491 H   0  0  0  0  0  0  0  0  0  0  0  0
    1.4441    3.9850    2.5766 H   0  0  0  0  0  0  0  0  0  0  0  0
    1.7590    4.5702    0.9079 H   0  0  0  0  0  0  0  0  0  0  0  0
    0.4862    3.3746    1.2116 H   0  0  0  0  0  0  0  0  0  0  0  0
    7.4958    3.6546   -0.6424 H   0  0  0  0  0  0  0  0  0  0  0  0
    7.6940    1.3340   -1.5441 H   0  0  0  0  0  0  0  0  0  0  0  0
    5.9452   -0.3179   -0.9441 H   0  0  0  0  0  0  0  0  0  0  0  0
    5.6992   -0.1251    2.4598 H   0  0  0  0  0  0  0  0  0  0  0  0
    4.8591   -1.3352    3.4118 H   0  0  0  0  0  0  0  0  0  0  0  0
    6.9872   -2.2521    2.4782 H   0  0  0  0  0  0  0  0  0  0  0  0
    5.5979   -3.1332    1.8196 H   0  0  0  0  0  0  0  0  0  0  0  0
    6.4250   -1.9275    0.8321 H   0  0  0  0  0  0  0  0  0  0  0  0
    0.8519    0.6691   -0.9371 H   0  0  0  0  0  0  0  0  0  0  0  0
    2.3267    1.5623   -1.1808 H   0  0  0  0  0  0  0  0  0  0  0  0
    0.3945    1.1113   -3.3561 H   0  0  0  0  0  0  0  0  0  0  0  0
    1.9736    1.8672   -3.5847 H   0  0  0  0  0  0  0  0  0  0  0  0
    1.4911    0.5123   -4.6128 H   0  0  0  0  0  0  0  0  0  0  0  0
    4.0513   -0.9916   -2.3307 H   0  0  0  0  0  0  0  0  0  0  0  0
    3.6761   -0.5537   -3.9945 H   0  0  0  0  0  0  0  0  0  0  0  0
    4.0957    0.7130   -2.8450 H   0  0  0  0  0  0  0  0  0  0  0  0
    1.8088   -1.9835   -3.6029 H   0  0  0  0  0  0  0  0  0  0  0  0
    1.6531   -2.1208   -1.8859 H   0  0  0  0  0  0  0  0  0  0  0  0
   -2.3806   -2.7327   -3.2710 H   0  0  0  0  0  0  0  0  0  0  0  0
   -2.2216   -0.3513   -2.4289 H   0  0  0  0  0  0  0  0  0  0  0  0
   -3.0331   -1.0893   -0.9082 H   0  0  0  0  0  0  0  0  0  0  0  0
   -5.3816   -0.9037    0.8592 H   0  0  0  0  0  0  0  0  0  0  0  0
   -5.2495    0.6388    2.4303 H   0  0  0  0  0  0  0  0  0  0  0  0
   -5.0305    3.2805    0.9000 H   0  0  0  0  0  0  0  0  0  0  0  0
   -5.5393    3.6084    3.3479 H   0  0  0  0  0  0  0  0  0  0  0  0
   -6.9359    3.9783    2.3373 H   0  0  0  0  0  0  0  0  0  0  0  0
   -6.8662    2.4438    3.2193 H   0  0  0  0  0  0  0  0  0  0  0  0
   -7.2574    1.1858    0.9543 H   0  0  0  0  0  0  0  0  0  0  0  0
   -7.3907    2.8071    0.2535 H   0  0  0  0  0  0  0  0  0  0  0  0
   -6.2653    1.6474   -0.4437 H   0  0  0  0  0  0  0  0  0  0  0  0
   -0.5837   -0.0495    2.9801 H   0  0  0  0  0  0  0  0  0  0  0  0
   -0.5118    1.6905    2.7730 H   0  0  0  0  0  0  0  0  0  0  0  0
    1.6168    0.7756    3.6097 H   0  0  0  0  0  0  0  0  0  0  0  0
    0.9373    1.9483    4.7441 H   0  0  0  0  0  0  0  0  0  0  0  0
    2.9651   -3.7727   10.2218 H   0  0  0  0  0  0  0  0  0  0  0  0
    4.4955   -4.3758    9.6574 H   0  0  0  0  0  0  0  0  0  0  0  0
    3.8292   -2.9061    8.9282 H   0  0  0  0  0  0  0  0  0  0  0  0
    4.7575   -5.5027    7.6794 H   0  0  0  0  0  0  0  0  0  0  0  0
    3.4432   -5.8534    6.5956 H   0  0  0  0  0  0  0  0  0  0  0  0
    4.1243   -4.2098    6.6521 H   0  0  0  0  0  0  0  0  0  0  0  0
    0.9395   -3.1520    9.6784 H   0  0  0  0  0  0  0  0  0  0  0  0
   -0.3774   -3.6834    8.6553 H   0  0  0  0  0  0  0  0  0  0  0  0
    0.5063   -4.8764    9.6166 H   0  0  0  0  0  0  0  0  0  0  0  0
    0.8085   -6.1800    7.3497 H   0  0  0  0  0  0  0  0  0  0  0  0
   -0.1063   -4.8530    6.6224 H   0  0  0  0  0  0  0  0  0  0  0  0
    1.4397   -5.3061    5.9363 H   0  0  0  0  0  0  0  0  0  0  0  0
   -0.2568   -0.7263    7.0690 H   0  0  0  0  0  0  0  0  0  0  0  0
   -0.2103    1.0145    6.8465 H   0  0  0  0  0  0  0  0  0  0  0  0
   -2.4509    0.1653    6.3177 H   0  0  0  0  0  0  0  0  0  0  0  0
   -1.7753   -1.0238    5.2035 H   0  0  0  0  0  0  0  0  0  0  0  0
   -2.0795    3.2944    3.2394 H   0  0  0  0  0  0  0  0  0  0  0  0
   -2.2352    2.8694    1.5325 H   0  0  0  0  0  0  0  0  0  0  0  0
   -3.4758    3.8502    2.3513 H   0  0  0  0  0  0  0  0  0  0  0  0
   -5.2673   -3.1036   -0.3489 H   0  0  0  0  0  0  0  0  0  0  0  0
   -3.9519   -3.3644   -1.4881 H   0  0  0  0  0  0  0  0  0  0  0  0
   -3.2758   -4.5267    0.4217 H   0  0  0  0  0  0  0  0  0  0  0  0
   -1.4676   -3.0385   -0.4237 H   0  0  0  0  0  0  0  0  0  0  0  0
   -2.0089   -1.7536    0.7156 H   0  0  0  0  0  0  0  0  0  0  0  0
   -1.2097   -3.7239    3.7544 H   0  0  0  0  0  0  0  0  0  0  0  0
   -1.8199   -2.1496    3.2012 H   0  0  0  0  0  0  0  0  0  0  0  0
   -3.1540   -4.8795    2.7522 H   0  0  0  0  0  0  0  0  0  0  0  0
   -3.7000   -3.5934    3.8348 H   0  0  0  0  0  0  0  0  0  0  0  0
   -5.8428   -0.7106   -4.4260 H   0  0  0  0  0  0  0  0  0  0  0  0
   -4.4671    0.2127   -5.0560 H   0  0  0  0  0  0  0  0  0  0  0  0
   -4.6835   -2.8421   -4.7938 H   0  0  0  0  0  0  0  0  0  0  0  0
   -4.6697   -1.9331   -6.3074 H   0  0  0  0  0  0  0  0  0  0  0  0
   -2.3575   -1.2589   -5.9714 H   0  0  0  0  0  0  0  0  0  0  0  0
   -2.4471   -2.9977   -5.7233 H   0  0  0  0  0  0  0  0  0  0  0  0
    3.2040   -3.0565    3.3640 H   0  0  0  0  0  0  0  0  0  0  0  0
    0.9600   -4.0487    3.2520 H   0  0  0  0  0  0  0  0  0  0  0  0
   -0.0249   -1.3942   -0.0024 H   0  0  0  0  0  0  0  0  0  0  0  0
  1  2  1  0
  2  3  1  0
  2  5  1  0
  3  4  1  0
  5  6  2  0
  5 10  1  0
  6  7  1  0
  7  8  2  0
  8  9  1  0
  9 10  2  0
 10 11  1  0
 11 12  1  0
 11 15  2  0
 12 13  1  0
 12 68  1  0
 13 14  1  0
 15 16  1  0
 15 67  1  0
 16 17  1  0
 17 18  1  0
 17 19  1  0
 17 20  1  0
 20 21  1  0
 21 22  1  0
 22 23  1  0
 22 66  2  0
 23 24  1  0
 23 65  1  0
 24 25  1  0
 25 26  1  0
 25 63  1  0
 26 27  1  0
 26 62  2  0
 27 28  1  0
 27 55  1  0
 28 29  1  0
 29 30  1  0
 29 54  2  0
 30 31  1  0
 30 34  1  0
 31 32  1  0
 31 33  1  0
 34 35  1  0
 34 53  1  0
 35 36  1  0
 35 52  2  0
 36 37  1  0
 36 51  1  0
 36 73  1  0
 37 38  1  0
 38 39  1  0
 39 40  1  0
 39 50  1  0
 40 41  1  0
 40 49  2  0
 42 43  1  0
 43 44  1  0
 43 47  1  0
 43 48  1  0
 44 45  1  0
 44 46  1  0
 50 51  1  0
 55 56  1  0
 56 57  1  0
 56 61  1  0
 57 58  1  0
 58 59  1  0
 58 71  1  0
 59 60  1  0
 60 61  1  0
 63 64  1  0
 64 65  1  0
 67 68  2  0
 67 72  1  0
 68 69  1  0
 69 70  2  0
 70 71  1  0
 71 72  2  0
 41 42  3  0
  1 74  1  0
  1 75  1  0
  1 76  1  0
  2 77  1  1
  4 78  1  0
  4 79  1  0
  4 80  1  0
  7 81  1  0
  8 82  1  0
  9 83  1  0
 13 84  1  0
 13 85  1  0
 14 86  1  0
 14 87  1  0
 14 88  1  0
 16 89  1  0
 16 90  1  0
 18 91  1  0
 18 92  1  0
 18 93  1  0
 19 94  1  0
 19 95  1  0
 19 96  1  0
 20 97  1  0
 20 98  1  0
 23 99  1  1
 24100  1  0
 27101  1  6
 28102  1  0
 30103  1  1
 31104  1  0
 32105  1  0
 32106  1  0
 32107  1  0
 33108  1  0
 33109  1  0
 33110  1  0
 37111  1  0
 37112  1  0
 38113  1  0
 38114  1  0
 45115  1  0
 45116  1  0
 45117  1  0
 46118  1  0
 46119  1  0
 46120  1  0
 47121  1  0
 47122  1  0
 47123  1  0
 48124  1  0
 48125  1  0
 48126  1  0
 50127  1  0
 50128  1  0
 51129  1  0
 51130  1  0
 53131  1  0
 53132  1  0
 53133  1  0
 55134  1  0
 55135  1  0
 56136  1  6
 57137  1  0
 57138  1  0
 59139  1  0
 59140  1  0
 60141  1  0
 60142  1  0
 63143  1  0
 63144  1  0
 64145  1  0
 64146  1  0
 65147  1  0
 65148  1  0
 69149  1  0
 70150  1  0
 72151  1  0
M  END
$$$$
