mol_bioactive_25
     RDKit          3D

151157  0  0  0  0  0  0  0  0999 V2000
    5.1886   -5.1243   -1.5956 C   0  0  0  0  0  0  0  0  0  0  0  0
    4.7255   -3.7836   -1.0156 C   0  0  2  0  0  0  0  0  0  0  0  0
    5.7187   -2.7778   -1.2652 O   0  0  0  0  0  0  0  0  0  0  0  0
    5.6275   -2.2140   -2.5655 C   0  0  0  0  0  0  0  0  0  0  0  0
    4.4761   -3.8765    0.4871 C   0  0  0  0  0  0  0  0  0  0  0  0
    5.2497   -4.7618    1.1867 N   0  0  0  0  0  0  0  0  0  0  0  0
    5.0432   -4.8777    2.5150 C   0  0  0  0  0  0  0  0  0  0  0  0
    4.0884   -4.1606    3.2075 C   0  0  0  0  0  0  0  0  0  0  0  0
    3.3064   -3.2598    2.4956 C   0  0  0  0  0  0  0  0  0  0  0  0
    3.4968   -3.0900    1.1182 C   0  0  0  0  0  0  0  0  0  0  0  0
    2.6594   -2.1181    0.4072 C   0  0  0  0  0  0  0  0  0  0  0  0
    1.3706   -2.3943   -0.0286 N   0  0  0  0  0  0  0  0  0  0  0  0
    0.6203   -3.6137    0.2413 C   0  0  0  0  0  0  0  0  0  0  0  0
    0.8490   -4.6926   -0.8023 C   0  0  0  0  0  0  0  0  0  0  0  0
    2.9577   -0.8129    0.0208 C   0  0  0  0  0  0  0  0  0  0  0  0
    4.2255   -0.0229    0.2509 C   0  0  0  0  0  0  0  0  0  0  0  0
    4.2878    0.8867    1.5153 C   0  0  0  0  0  0  0  0  0  0  0  0
    4.5424    0.0314    2.7706 C   0  0  0  0  0  0  0  0  0  0  0  0
    3.0016    1.7069    1.7400 C   0  0  0  0  0  0  0  0  0  0  0  0
    5.4960    1.8548    1.3519 C   0  0  0  0  0  0  0  0  0  0  0  0
    5.1765    2.9475    0.4687 O   0  0  0  0  0  0  0  0  0  0  0  0
    6.2260    3.7983    0.2398 C   0  0  0  0  0  0  0  0  0  0  0  0
    5.7600    5.0820   -0.4682 C   0  0  1  0  0  0  0  0  0  0  0  0
    4.5022    5.5742    0.1427 N   0  0  0  0  0  0  0  0  0  0  0  0
    4.0527    6.8002   -0.4621 N   0  0  0  0  0  0  0  0  0  0  0  0
    2.6828    7.1544   -0.4538 C   0  0  0  0  0  0  0  0  0  0  0  0
    1.6783    6.0362   -0.8111 C   0  0  1  0  0  0  0  0  0  0  0  0
    0.3617    6.3118   -0.2517 N   0  0  0  0  0  0  0  0  0  0  0  0
   -0.0317    5.8096    0.9686 C   0  0  0  0  0  0  0  0  0  0  0  0
   -1.4969    6.1436    1.3691 C   0  0  2  0  0  0  0  0  0  0  0  0
   -1.6101    7.4355    2.2179 C   0  0  0  0  0  0  0  0  0  0  0  0
   -0.9041    8.6328    1.5665 C   0  0  0  0  0  0  0  0  0  0  0  0
   -3.0823    7.8089    2.4391 C   0  0  0  0  0  0  0  0  0  0  0  0
   -2.0883    4.9282    2.0043 N   0  0  0  0  0  0  0  0  0  0  0  0
   -2.6979    4.0101    1.1475 C   0  0  0  0  0  0  0  0  0  0  0  0
   -3.1012    2.6044    1.6602 C   0  0  0  0  0  0  0  0  0  0  0  0
   -1.8633    1.7337    1.9018 C   0  0  0  0  0  0  0  0  0  0  0  0
   -2.2616    0.3174    2.3006 C   0  0  0  0  0  0  0  0  0  0  0  0
   -3.1685   -0.2691    1.3246 N   0  0  0  0  0  0  0  0  0  0  0  0
   -3.0773   -1.6342    1.0736 C   0  0  0  0  0  0  0  0  0  0  0  0
   -3.9047   -2.1912    0.0237 C   0  0  0  0  0  0  0  0  0  0  0  0
   -4.5424   -2.6443   -0.8909 C   0  0  0  0  0  0  0  0  0  0  0  0
   -5.2974   -3.1781   -2.0570 C   0  0  0  0  0  0  0  0  0  0  0  0
   -6.2390   -4.2265   -1.5873 N   0  0  0  0  0  0  0  0  0  0  0  0
   -7.2144   -4.6671   -2.5865 C   0  0  0  0  0  0  0  0  0  0  0  0
   -5.5809   -5.4042   -1.0070 C   0  0  0  0  0  0  0  0  0  0  0  0
   -4.2801   -3.6755   -3.1063 C   0  0  0  0  0  0  0  0  0  0  0  0
   -6.0612   -1.9735   -2.6607 C   0  0  0  0  0  0  0  0  0  0  0  0
   -2.2948   -2.3854    1.6435 O   0  0  0  0  0  0  0  0  0  0  0  0
   -4.3664    0.5063    1.0256 C   0  0  0  0  0  0  0  0  0  0  0  0
   -4.0158    1.9295    0.6236 C   0  0  0  0  0  0  0  0  0  0  0  0
   -2.8877    4.3016   -0.0403 O   0  0  0  0  0  0  0  0  0  0  0  0
   -1.8159    4.6909    3.4218 C   0  0  0  0  0  0  0  0  0  0  0  0
    0.7313    5.1514    1.6754 O   0  0  0  0  0  0  0  0  0  0  0  0
    1.6280    5.9265   -2.3510 C   0  0  0  0  0  0  0  0  0  0  0  0
    0.7063    4.8247   -2.9042 C   0  0  1  0  0  0  0  0  0  0  0  0
    1.0350    3.4527   -2.2939 C   0  0  0  0  0  0  0  0  0  0  0  0
    0.1017    2.3786   -2.7130 N   0  0  0  0  0  0  0  0  0  0  0  0
   -1.3175    2.8154   -2.6170 C   0  0  0  0  0  0  0  0  0  0  0  0
   -1.5327    4.2081   -3.2344 C   0  0  0  0  0  0  0  0  0  0  0  0
   -0.6589    5.1976   -2.6699 O   0  0  0  0  0  0  0  0  0  0  0  0
    2.3047    8.3244   -0.3327 O   0  0  0  0  0  0  0  0  0  0  0  0
    5.0185    7.8989   -0.3334 C   0  0  0  0  0  0  0  0  0  0  0  0
    6.3685    7.4994   -0.9175 C   0  0  0  0  0  0  0  0  0  0  0  0
    6.8412    6.1670   -0.3405 C   0  0  0  0  0  0  0  0  0  0  0  0
    7.3911    3.5457    0.5278 O   0  0  0  0  0  0  0  0  0  0  0  0
    1.8442   -0.3463   -0.7490 C   0  0  0  0  0  0  0  0  0  0  0  0
    0.8750   -1.3370   -0.7673 C   0  0  0  0  0  0  0  0  0  0  0  0
   -0.3303   -1.1611   -1.4614 C   0  0  0  0  0  0  0  0  0  0  0  0
   -0.5554    0.0658   -2.1133 C   0  0  0  0  0  0  0  0  0  0  0  0
    0.3669    1.1212   -2.0917 C   0  0  0  0  0  0  0  0  0  0  0  0
    1.5887    0.8568   -1.4429 C   0  0  0  0  0  0  0  0  0  0  0  0
   -3.8203    2.6832    2.8247 F   0  0  0  0  0  0  0  0  0  0  0  0
    6.1874   -5.3943   -1.2331 H   0  0  0  0  0  0  0  0  0  0  0  0
    4.4919   -5.9314   -1.3415 H   0  0  0  0  0  0  0  0  0  0  0  0
    5.2608   -5.0753   -2.6885 H   0  0  0  0  0  0  0  0  0  0  0  0
    3.7882   -3.5178   -1.5188 H   0  0  0  0  0  0  0  0  0  0  0  0
    6.3898   -1.4352   -2.6531 H   0  0  0  0  0  0  0  0  0  0  0  0
    5.8178   -2.9659   -3.3351 H   0  0  0  0  0  0  0  0  0  0  0  0
    4.6466   -1.7543   -2.7216 H   0  0  0  0  0  0  0  0  0  0  0  0
    5.6872   -5.5896    3.0225 H   0  0  0  0  0  0  0  0  0  0  0  0
    3.9598   -4.2925    4.2760 H   0  0  0  0  0  0  0  0  0  0  0  0
    2.5494   -2.6799    3.0182 H   0  0  0  0  0  0  0  0  0  0  0  0
    0.8783   -3.9733    1.2415 H   0  0  0  0  0  0  0  0  0  0  0  0
   -0.4403   -3.3542    0.2688 H   0  0  0  0  0  0  0  0  0  0  0  0
    0.1998   -5.5510   -0.6054 H   0  0  0  0  0  0  0  0  0  0  0  0
    0.6314   -4.3256   -1.8106 H   0  0  0  0  0  0  0  0  0  0  0  0
    1.8837   -5.0471   -0.7921 H   0  0  0  0  0  0  0  0  0  0  0  0
    5.0769   -0.7153    0.2690 H   0  0  0  0  0  0  0  0  0  0  0  0
    4.3926    0.5967   -0.6406 H   0  0  0  0  0  0  0  0  0  0  0  0
    4.7724    0.6593    3.6384 H   0  0  0  0  0  0  0  0  0  0  0  0
    3.6593   -0.5544    3.0344 H   0  0  0  0  0  0  0  0  0  0  0  0
    5.3866   -0.6520    2.6273 H   0  0  0  0  0  0  0  0  0  0  0  0
    3.1236    2.3947    2.5842 H   0  0  0  0  0  0  0  0  0  0  0  0
    2.7430    2.3091    0.8647 H   0  0  0  0  0  0  0  0  0  0  0  0
    2.1463    1.0636    1.9732 H   0  0  0  0  0  0  0  0  0  0  0  0
    5.7584    2.2895    2.3248 H   0  0  0  0  0  0  0  0  0  0  0  0
    6.3673    1.3057    0.9742 H   0  0  0  0  0  0  0  0  0  0  0  0
    5.5946    4.8352   -1.5240 H   0  0  0  0  0  0  0  0  0  0  0  0
    3.8109    4.8258    0.1110 H   0  0  0  0  0  0  0  0  0  0  0  0
    2.0224    5.0992   -0.3798 H   0  0  0  0  0  0  0  0  0  0  0  0
   -0.3008    6.8218   -0.8274 H   0  0  0  0  0  0  0  0  0  0  0  0
   -2.0393    6.3327    0.4345 H   0  0  0  0  0  0  0  0  0  0  0  0
   -1.1384    7.2834    3.1951 H   0  0  0  0  0  0  0  0  0  0  0  0
   -1.1017    9.5526    2.1264 H   0  0  0  0  0  0  0  0  0  0  0  0
    0.1800    8.4918    1.5549 H   0  0  0  0  0  0  0  0  0  0  0  0
   -1.2467    8.7864    0.5374 H   0  0  0  0  0  0  0  0  0  0  0  0
   -3.1643    8.6758    3.1055 H   0  0  0  0  0  0  0  0  0  0  0  0
   -3.5731    8.0659    1.4924 H   0  0  0  0  0  0  0  0  0  0  0  0
   -3.6492    6.9938    2.8989 H   0  0  0  0  0  0  0  0  0  0  0  0
   -1.2526    1.7027    0.9900 H   0  0  0  0  0  0  0  0  0  0  0  0
   -1.2270    2.1459    2.6906 H   0  0  0  0  0  0  0  0  0  0  0  0
   -1.3595   -0.2960    2.4017 H   0  0  0  0  0  0  0  0  0  0  0  0
   -2.7702    0.3131    3.2713 H   0  0  0  0  0  0  0  0  0  0  0  0
   -7.8812   -5.4270   -2.1624 H   0  0  0  0  0  0  0  0  0  0  0  0
   -7.8720   -3.8493   -2.8961 H   0  0  0  0  0  0  0  0  0  0  0  0
   -6.7428   -5.0978   -3.4757 H   0  0  0  0  0  0  0  0  0  0  0  0
   -4.8895   -5.1363   -0.2013 H   0  0  0  0  0  0  0  0  0  0  0  0
   -6.3278   -6.0641   -0.5486 H   0  0  0  0  0  0  0  0  0  0  0  0
   -5.0349   -5.9903   -1.7540 H   0  0  0  0  0  0  0  0  0  0  0  0
   -3.6273   -4.4614   -2.7105 H   0  0  0  0  0  0  0  0  0  0  0  0
   -4.7753   -4.0617   -4.0017 H   0  0  0  0  0  0  0  0  0  0  0  0
   -3.6204   -2.8606   -3.4285 H   0  0  0  0  0  0  0  0  0  0  0  0
   -6.8401   -1.6104   -1.9789 H   0  0  0  0  0  0  0  0  0  0  0  0
   -5.3862   -1.1285   -2.8486 H   0  0  0  0  0  0  0  0  0  0  0  0
   -6.5318   -2.2206   -3.6189 H   0  0  0  0  0  0  0  0  0  0  0  0
   -4.9554    0.0428    0.2293 H   0  0  0  0  0  0  0  0  0  0  0  0
   -4.9909    0.5001    1.9269 H   0  0  0  0  0  0  0  0  0  0  0  0
   -4.9415    2.5058    0.5092 H   0  0  0  0  0  0  0  0  0  0  0  0
   -3.5247    1.9021   -0.3567 H   0  0  0  0  0  0  0  0  0  0  0  0
   -2.2580    5.4939    4.0136 H   0  0  0  0  0  0  0  0  0  0  0  0
   -2.2382    3.7602    3.7918 H   0  0  0  0  0  0  0  0  0  0  0  0
   -0.7391    4.6690    3.5924 H   0  0  0  0  0  0  0  0  0  0  0  0
    1.2989    6.8927   -2.7620 H   0  0  0  0  0  0  0  0  0  0  0  0
    2.6431    5.7544   -2.7311 H   0  0  0  0  0  0  0  0  0  0  0  0
    0.8523    4.7839   -3.9925 H   0  0  0  0  0  0  0  0  0  0  0  0
    2.0552    3.2139   -2.6123 H   0  0  0  0  0  0  0  0  0  0  0  0
    0.9890    3.5150   -1.2020 H   0  0  0  0  0  0  0  0  0  0  0  0
   -1.9822    2.1264   -3.1480 H   0  0  0  0  0  0  0  0  0  0  0  0
   -1.6035    2.8404   -1.5618 H   0  0  0  0  0  0  0  0  0  0  0  0
   -1.3811    4.1804   -4.3193 H   0  0  0  0  0  0  0  0  0  0  0  0
   -2.5608    4.5351   -3.0514 H   0  0  0  0  0  0  0  0  0  0  0  0
    4.6440    8.7870   -0.8572 H   0  0  0  0  0  0  0  0  0  0  0  0
    5.1015    8.1556    0.7293 H   0  0  0  0  0  0  0  0  0  0  0  0
    6.2768    7.4035   -2.0074 H   0  0  0  0  0  0  0  0  0  0  0  0
    7.1098    8.2817   -0.7228 H   0  0  0  0  0  0  0  0  0  0  0  0
    7.1168    6.3070    0.7148 H   0  0  0  0  0  0  0  0  0  0  0  0
    7.7545    5.8514   -0.8607 H   0  0  0  0  0  0  0  0  0  0  0  0
   -1.0806   -1.9435   -1.5012 H   0  0  0  0  0  0  0  0  0  0  0  0
   -1.4939    0.1599   -2.6517 H   0  0  0  0  0  0  0  0  0  0  0  0
    2.3880    1.5855   -1.4207 H   0  0  0  0  0  0  0  0  0  0  0  0
  1  2  1  0
  2  3  1  0
  2  5  1  0
  3  4  1  0
  5  6  2  0
  5 10  1  0
  6  7  1  0
  7  8  2  0
  8  9  1  0
  9 10  2  0
 10 11  1  0
 11 12  1  0
 11 15  2  0
 12 13  1  0
 12 68  1  0
 13 14  1  0
 15 16  1  0
 15 67  1  0
 16 17  1  0
 17 18  1  0
 17 19  1  0
 17 20  1  0
 20 21  1  0
 21 22  1  0
 22 23  1  0
 22 66  2  0
 23 24  1  0
 23 65  1  0
 24 25  1  0
 25 26  1  0
 25 63  1  0
 26 27  1  0
 26 62  2  0
 27 28  1  0
 27 55  1  0
 28 29  1  0
 29 30  1  0
 29 54  2  0
 30 31  1  0
 30 34  1  0
 31 32  1  0
 31 33  1  0
 34 35  1  0
 34 53  1  0
 35 36  1  0
 35 52  2  0
 36 37  1  0
 36 51  1  0
 36 73  1  0
 37 38  1  0
 38 39  1  0
 39 40  1  0
 39 50  1  0
 40 41  1  0
 40 49  2  0
 42 43  1  0
 43 44  1  0
 43 47  1  0
 43 48  1  0
 44 45  1  0
 44 46  1  0
 50 51  1  0
 55 56  1  0
 56 57  1  0
 56 61  1  0
 57 58  1  0
 58 59  1  0
 58 71  1  0
 59 60  1  0
 60 61  1  0
 63 64  1  0
 64 65  1  0
 67 68  2  0
 67 72  1  0
 68 69  1  0
 69 70  2  0
 70 71  1  0
 71 72  2  0
 41 42  3  0
  1 74  1  0
  1 75  1  0
  1 76  1  0
  2 77  1  6
  4 78  1  0
  4 79  1  0
  4 80  1  0
  7 81  1  0
  8 82  1  0
  9 83  1  0
 13 84  1  0
 13 85  1  0
 14 86  1  0
 14 87  1  0
 14 88  1  0
 16 89  1  0
 16 90  1  0
 18 91  1  0
 18 92  1  0
 18 93  1  0
 19 94  1  0
 19 95  1  0
 19 96  1  0
 20 97  1  0
 20 98  1  0
 23 99  1  6
 24100  1  0
 27101  1  1
 28102  1  0
 30103  1  6
 31104  1  0
 32105  1  0
 32106  1  0
 32107  1  0
 33108  1  0
 33109  1  0
 33110  1  0
 37111  1  0
 37112  1  0
 38113  1  0
 38114  1  0
 45115  1  0
 45116  1  0
 45117  1  0
 46118  1  0
 46119  1  0
 46120  1  0
 47121  1  0
 47122  1  0
 47123  1  0
 48124  1  0
 48125  1  0
 48126  1  0
 50127  1  0
 50128  1  0
 51129  1  0
 51130  1  0
 53131  1  0
 53132  1  0
 53133  1  0
 55134  1  0
 55135  1  0
 56136  1  6
 57137  1  0
 57138  1  0
 59139  1  0
 59140  1  0
 60141  1  0
 60142  1  0
 63143  1  0
 63144  1  0
 64145  1  0
 64146  1  0
 65147  1  0
 65148  1  0
 69149  1  0
 70150  1  0
 72151  1  0
M  END
$$$$
