mol_bioactive_11
     RDKit          3D

151157  0  0  0  0  0  0  0  0999 V2000
   -0.2962    1.7557    5.6754 C   0  0  0  0  0  0  0  0  0  0  0  0
   -0.2782    0.2316    5.5880 C   0  0  2  0  0  0  0  0  0  0  0  0
    0.6205   -0.2043    4.5614 O   0  0  0  0  0  0  0  0  0  0  0  0
    1.9450   -0.4042    5.0303 C   0  0  0  0  0  0  0  0  0  0  0  0
   -1.6840   -0.3354    5.4246 C   0  0  0  0  0  0  0  0  0  0  0  0
   -2.2140   -0.8216    6.5919 N   0  0  0  0  0  0  0  0  0  0  0  0
   -3.4754   -1.2978    6.5800 C   0  0  0  0  0  0  0  0  0  0  0  0
   -4.2751   -1.3073    5.4583 C   0  0  0  0  0  0  0  0  0  0  0  0
   -3.7422   -0.8065    4.2771 C   0  0  0  0  0  0  0  0  0  0  0  0
   -2.4275   -0.3155    4.2311 C   0  0  0  0  0  0  0  0  0  0  0  0
   -1.9407    0.2025    2.9453 C   0  0  0  0  0  0  0  0  0  0  0  0
   -2.2374    1.4745    2.4760 N   0  0  0  0  0  0  0  0  0  0  0  0
   -3.0761    2.4591    3.1498 C   0  0  0  0  0  0  0  0  0  0  0  0
   -4.4874    2.4986    2.5891 C   0  0  0  0  0  0  0  0  0  0  0  0
   -1.1689   -0.4304    1.9686 C   0  0  0  0  0  0  0  0  0  0  0  0
   -0.5918   -1.8315    1.9996 C   0  0  0  0  0  0  0  0  0  0  0  0
   -1.3913   -2.9645    1.2873 C   0  0  0  0  0  0  0  0  0  0  0  0
   -2.8181   -3.0710    1.8557 C   0  0  0  0  0  0  0  0  0  0  0  0
   -0.6706   -4.2982    1.5912 C   0  0  0  0  0  0  0  0  0  0  0  0
   -1.5049   -2.7679   -0.2462 C   0  0  0  0  0  0  0  0  0  0  0  0
   -0.2796   -3.0515   -0.9601 O   0  0  0  0  0  0  0  0  0  0  0  0
   -0.2966   -4.1894   -1.7304 C   0  0  0  0  0  0  0  0  0  0  0  0
    0.9427   -4.2736   -2.6320 C   0  0  1  0  0  0  0  0  0  0  0  0
    2.1828   -4.1199   -1.8538 N   0  0  0  0  0  0  0  0  0  0  0  0
    3.3228   -4.1785   -2.7010 N   0  0  0  0  0  0  0  0  0  0  0  0
    4.0469   -3.0731   -3.1706 C   0  0  0  0  0  0  0  0  0  0  0  0
    3.5428   -1.6660   -2.8002 C   0  0  1  0  0  0  0  0  0  0  0  0
    4.6203   -0.8823   -2.2187 N   0  0  0  0  0  0  0  0  0  0  0  0
    4.8446   -0.8838   -0.8586 C   0  0  0  0  0  0  0  0  0  0  0  0
    6.0301   -0.0030   -0.3874 C   0  0  2  0  0  0  0  0  0  0  0  0
    7.2988   -0.8548   -0.1230 C   0  0  0  0  0  0  0  0  0  0  0  0
    8.4847    0.0405    0.2584 C   0  0  0  0  0  0  0  0  0  0  0  0
    7.6964   -1.6921   -1.3467 C   0  0  0  0  0  0  0  0  0  0  0  0
    5.5675    0.8242    0.7645 N   0  0  0  0  0  0  0  0  0  0  0  0
    4.9306    2.0271    0.4415 C   0  0  0  0  0  0  0  0  0  0  0  0
    4.1819    2.8427    1.5284 C   0  0  0  0  0  0  0  0  0  0  0  0
    3.9011    4.2575    0.9942 C   0  0  0  0  0  0  0  0  0  0  0  0
    3.0577    5.0672    1.9617 C   0  0  0  0  0  0  0  0  0  0  0  0
    1.8454    4.3478    2.3318 N   0  0  0  0  0  0  0  0  0  0  0  0
    0.6354    4.9871    2.5772 C   0  0  0  0  0  0  0  0  0  0  0  0
    0.3798    6.2435    1.9071 C   0  0  0  0  0  0  0  0  0  0  0  0
    0.1011    7.2471    1.3056 C   0  0  0  0  0  0  0  0  0  0  0  0
   -0.2976    8.4470    0.5332 C   0  0  0  0  0  0  0  0  0  0  0  0
   -1.6324    8.9643    0.9431 N   0  0  0  0  0  0  0  0  0  0  0  0
   -1.6849    9.4618    2.3218 C   0  0  0  0  0  0  0  0  0  0  0  0
   -2.7345    8.0189    0.7339 C   0  0  0  0  0  0  0  0  0  0  0  0
   -0.3044    8.0786   -0.9699 C   0  0  0  0  0  0  0  0  0  0  0  0
    0.7901    9.5318    0.7100 C   0  0  0  0  0  0  0  0  0  0  0  0
   -0.2555    4.5353    3.2862 O   0  0  0  0  0  0  0  0  0  0  0  0
    2.0423    3.0084    2.8633 C   0  0  0  0  0  0  0  0  0  0  0  0
    2.8684    2.1529    1.9121 C   0  0  0  0  0  0  0  0  0  0  0  0
    4.9279    2.4295   -0.7305 O   0  0  0  0  0  0  0  0  0  0  0  0
    5.4914    0.1942    2.0825 C   0  0  0  0  0  0  0  0  0  0  0  0
    4.1447   -1.5438   -0.0907 O   0  0  0  0  0  0  0  0  0  0  0  0
    2.9503   -0.9953   -4.0566 C   0  0  0  0  0  0  0  0  0  0  0  0
    2.2597    0.3607   -3.8073 C   0  0  1  0  0  0  0  0  0  0  0  0
    1.4058    0.3446   -2.5300 C   0  0  0  0  0  0  0  0  0  0  0  0
    0.7702    1.6471   -2.2526 N   0  0  0  0  0  0  0  0  0  0  0  0
    1.7771    2.7427   -2.2784 C   0  0  0  0  0  0  0  0  0  0  0  0
    2.6356    2.6719   -3.5556 C   0  0  0  0  0  0  0  0  0  0  0  0
    3.2634    1.3881   -3.7295 O   0  0  0  0  0  0  0  0  0  0  0  0
    5.0351   -3.1987   -3.9031 O   0  0  0  0  0  0  0  0  0  0  0  0
    3.5212   -5.4958   -3.3078 C   0  0  0  0  0  0  0  0  0  0  0  0
    2.2921   -5.8208   -4.1619 C   0  0  0  0  0  0  0  0  0  0  0  0
    0.9967   -5.6375   -3.3563 C   0  0  0  0  0  0  0  0  0  0  0  0
   -1.2209   -4.9945   -1.7623 O   0  0  0  0  0  0  0  0  0  0  0  0
   -0.9101    0.5480    0.9553 C   0  0  0  0  0  0  0  0  0  0  0  0
   -1.5883    1.7136    1.2809 C   0  0  0  0  0  0  0  0  0  0  0  0
   -1.5325    2.8503    0.4574 C   0  0  0  0  0  0  0  0  0  0  0  0
   -0.7512    2.7949   -0.7088 C   0  0  0  0  0  0  0  0  0  0  0  0
   -0.0203    1.6575   -1.0681 C   0  0  0  0  0  0  0  0  0  0  0  0
   -0.1330    0.5361   -0.2216 C   0  0  0  0  0  0  0  0  0  0  0  0
    4.9414    2.9973    2.6586 F   0  0  0  0  0  0  0  0  0  0  0  0
   -0.9766    2.1045    6.4597 H   0  0  0  0  0  0  0  0  0  0  0  0
    0.7045    2.1453    5.8912 H   0  0  0  0  0  0  0  0  0  0  0  0
   -0.6040    2.2078    4.7307 H   0  0  0  0  0  0  0  0  0  0  0  0
    0.0930   -0.1457    6.5514 H   0  0  0  0  0  0  0  0  0  0  0  0
    1.9678   -1.1866    5.7952 H   0  0  0  0  0  0  0  0  0  0  0  0
    2.5608   -0.7291    4.1868 H   0  0  0  0  0  0  0  0  0  0  0  0
    2.3633    0.5259    5.4264 H   0  0  0  0  0  0  0  0  0  0  0  0
   -3.8365   -1.6787    7.5305 H   0  0  0  0  0  0  0  0  0  0  0  0
   -5.2859   -1.6969    5.4967 H   0  0  0  0  0  0  0  0  0  0  0  0
   -4.3557   -0.8057    3.3789 H   0  0  0  0  0  0  0  0  0  0  0  0
   -3.0977    2.2339    4.2197 H   0  0  0  0  0  0  0  0  0  0  0  0
   -2.5979    3.4371    3.0448 H   0  0  0  0  0  0  0  0  0  0  0  0
   -5.0923    3.2234    3.1427 H   0  0  0  0  0  0  0  0  0  0  0  0
   -4.4878    2.7922    1.5350 H   0  0  0  0  0  0  0  0  0  0  0  0
   -4.9746    1.5219    2.6615 H   0  0  0  0  0  0  0  0  0  0  0  0
    0.4239   -1.7944    1.5827 H   0  0  0  0  0  0  0  0  0  0  0  0
   -0.4558   -2.1161    3.0516 H   0  0  0  0  0  0  0  0  0  0  0  0
   -2.8016   -3.1933    2.9437 H   0  0  0  0  0  0  0  0  0  0  0  0
   -3.4148   -2.1880    1.6062 H   0  0  0  0  0  0  0  0  0  0  0  0
   -3.3435   -3.9399    1.4430 H   0  0  0  0  0  0  0  0  0  0  0  0
   -0.6619   -4.5053    2.6679 H   0  0  0  0  0  0  0  0  0  0  0  0
   -1.1703   -5.1406    1.1001 H   0  0  0  0  0  0  0  0  0  0  0  0
    0.3716   -4.2794    1.2544 H   0  0  0  0  0  0  0  0  0  0  0  0
   -2.3314   -3.3741   -0.6384 H   0  0  0  0  0  0  0  0  0  0  0  0
   -1.7860   -1.7400   -0.4892 H   0  0  0  0  0  0  0  0  0  0  0  0
    0.8516   -3.4690   -3.3716 H   0  0  0  0  0  0  0  0  0  0  0  0
    2.1790   -3.3291   -1.2066 H   0  0  0  0  0  0  0  0  0  0  0  0
    2.7610   -1.7552   -2.0525 H   0  0  0  0  0  0  0  0  0  0  0  0
    5.2241   -0.3551   -2.8398 H   0  0  0  0  0  0  0  0  0  0  0  0
    6.2760    0.6787   -1.2122 H   0  0  0  0  0  0  0  0  0  0  0  0
    7.1116   -1.5595    0.6962 H   0  0  0  0  0  0  0  0  0  0  0  0
    8.2805    0.6240    1.1607 H   0  0  0  0  0  0  0  0  0  0  0  0
    9.3781   -0.5620    0.4558 H   0  0  0  0  0  0  0  0  0  0  0  0
    8.7232    0.7428   -0.5480 H   0  0  0  0  0  0  0  0  0  0  0  0
    8.6331   -2.2293   -1.1613 H   0  0  0  0  0  0  0  0  0  0  0  0
    6.9371   -2.4458   -1.5772 H   0  0  0  0  0  0  0  0  0  0  0  0
    7.8375   -1.0630   -2.2316 H   0  0  0  0  0  0  0  0  0  0  0  0
    4.8476    4.7831    0.8202 H   0  0  0  0  0  0  0  0  0  0  0  0
    3.3753    4.2108    0.0332 H   0  0  0  0  0  0  0  0  0  0  0  0
    3.6131    5.2653    2.8870 H   0  0  0  0  0  0  0  0  0  0  0  0
    2.8273    6.0401    1.5190 H   0  0  0  0  0  0  0  0  0  0  0  0
   -1.4695    8.6820    3.0610 H   0  0  0  0  0  0  0  0  0  0  0  0
   -0.9954   10.2969    2.4793 H   0  0  0  0  0  0  0  0  0  0  0  0
   -2.6804    9.8661    2.5443 H   0  0  0  0  0  0  0  0  0  0  0  0
   -3.6910    8.4847    1.0017 H   0  0  0  0  0  0  0  0  0  0  0  0
   -2.8377    7.7379   -0.3181 H   0  0  0  0  0  0  0  0  0  0  0  0
   -2.6307    7.1076    1.3334 H   0  0  0  0  0  0  0  0  0  0  0  0
   -0.9173    7.1954   -1.1834 H   0  0  0  0  0  0  0  0  0  0  0  0
   -0.6748    8.9100   -1.5809 H   0  0  0  0  0  0  0  0  0  0  0  0
    0.7060    7.8363   -1.3234 H   0  0  0  0  0  0  0  0  0  0  0  0
    0.9977    9.7495    1.7637 H   0  0  0  0  0  0  0  0  0  0  0  0
    1.7453    9.2106    0.2739 H   0  0  0  0  0  0  0  0  0  0  0  0
    0.5025   10.4666    0.2147 H   0  0  0  0  0  0  0  0  0  0  0  0
    2.5405    3.1049    3.8358 H   0  0  0  0  0  0  0  0  0  0  0  0
    1.0777    2.5222    3.0351 H   0  0  0  0  0  0  0  0  0  0  0  0
    2.2866    1.9506    1.0060 H   0  0  0  0  0  0  0  0  0  0  0  0
    3.0464    1.1873    2.3920 H   0  0  0  0  0  0  0  0  0  0  0  0
    5.3024    0.9149    2.8756 H   0  0  0  0  0  0  0  0  0  0  0  0
    4.6863   -0.5438    2.0919 H   0  0  0  0  0  0  0  0  0  0  0  0
    6.4366   -0.2945    2.3256 H   0  0  0  0  0  0  0  0  0  0  0  0
    3.7388   -0.8629   -4.8085 H   0  0  0  0  0  0  0  0  0  0  0  0
    2.2093   -1.6787   -4.4905 H   0  0  0  0  0  0  0  0  0  0  0  0
    1.6276    0.5831   -4.6771 H   0  0  0  0  0  0  0  0  0  0  0  0
    0.6465   -0.4400   -2.6363 H   0  0  0  0  0  0  0  0  0  0  0  0
    2.0605    0.1279   -1.6786 H   0  0  0  0  0  0  0  0  0  0  0  0
    1.3033    3.7286   -2.2398 H   0  0  0  0  0  0  0  0  0  0  0  0
    2.4313    2.6375   -1.4079 H   0  0  0  0  0  0  0  0  0  0  0  0
    2.0291    2.8911   -4.4428 H   0  0  0  0  0  0  0  0  0  0  0  0
    3.4319    3.4217   -3.5063 H   0  0  0  0  0  0  0  0  0  0  0  0
    4.4245   -5.5173   -3.9253 H   0  0  0  0  0  0  0  0  0  0  0  0
    3.6409   -6.2297   -2.5025 H   0  0  0  0  0  0  0  0  0  0  0  0
    2.2650   -5.1499   -5.0305 H   0  0  0  0  0  0  0  0  0  0  0  0
    2.3570   -6.8454   -4.5444 H   0  0  0  0  0  0  0  0  0  0  0  0
    0.9173   -6.4527   -2.6236 H   0  0  0  0  0  0  0  0  0  0  0  0
    0.1355   -5.7388   -4.0281 H   0  0  0  0  0  0  0  0  0  0  0  0
   -2.0681    3.7588    0.7106 H   0  0  0  0  0  0  0  0  0  0  0  0
   -0.7378    3.6730   -1.3490 H   0  0  0  0  0  0  0  0  0  0  0  0
    0.3979   -0.3854   -0.4218 H   0  0  0  0  0  0  0  0  0  0  0  0
  1  2  1  0
  2  3  1  0
  2  5  1  0
  3  4  1  0
  5  6  2  0
  5 10  1  0
  6  7  1  0
  7  8  2  0
  8  9  1  0
  9 10  2  0
 10 11  1  0
 11 12  1  0
 11 15  2  0
 12 13  1  0
 12 68  1  0
 13 14  1  0
 15 16  1  0
 15 67  1  0
 16 17  1  0
 17 18  1  0
 17 19  1  0
 17 20  1  0
 20 21  1  0
 21 22  1  0
 22 23  1  0
 22 66  2  0
 23 24  1  0
 23 65  1  0
 24 25  1  0
 25 26  1  0
 25 63  1  0
 26 27  1  0
 26 62  2  0
 27 28  1  0
 27 55  1  0
 28 29  1  0
 29 30  1  0
 29 54  2  0
 30 31  1  0
 30 34  1  0
 31 32  1  0
 31 33  1  0
 34 35  1  0
 34 53  1  0
 35 36  1  0
 35 52  2  0
 36 37  1  0
 36 51  1  0
 36 73  1  0
 37 38  1  0
 38 39  1  0
 39 40  1  0
 39 50  1  0
 40 41  1  0
 40 49  2  0
 42 43  1  0
 43 44  1  0
 43 47  1  0
 43 48  1  0
 44 45  1  0
 44 46  1  0
 50 51  1  0
 55 56  1  0
 56 57  1  0
 56 61  1  0
 57 58  1  0
 58 59  1  0
 58 71  1  0
 59 60  1  0
 60 61  1  0
 63 64  1  0
 64 65  1  0
 67 68  2  0
 67 72  1  0
 68 69  1  0
 69 70  2  0
 70 71  1  0
 71 72  2  0
 41 42  3  0
  1 74  1  0
  1 75  1  0
  1 76  1  0
  2 77  1  1
  4 78  1  0
  4 79  1  0
  4 80  1  0
  7 81  1  0
  8 82  1  0
  9 83  1  0
 13 84  1  0
 13 85  1  0
 14 86  1  0
 14 87  1  0
 14 88  1  0
 16 89  1  0
 16 90  1  0
 18 91  1  0
 18 92  1  0
 18 93  1  0
 19 94  1  0
 19 95  1  0
 19 96  1  0
 20 97  1  0
 20 98  1  0
 23 99  1  6
 24100  1  0
 27101  1  1
 28102  1  0
 30103  1  6
 31104  1  0
 32105  1  0
 32106  1  0
 32107  1  0
 33108  1  0
 33109  1  0
 33110  1  0
 37111  1  0
 37112  1  0
 38113  1  0
 38114  1  0
 45115  1  0
 45116  1  0
 45117  1  0
 46118  1  0
 46119  1  0
 46120  1  0
 47121  1  0
 47122  1  0
 47123  1  0
 48124  1  0
 48125  1  0
 48126  1  0
 50127  1  0
 50128  1  0
 51129  1  0
 51130  1  0
 53131  1  0
 53132  1  0
 53133  1  0
 55134  1  0
 55135  1  0
 56136  1  6
 57137  1  0
 57138  1  0
 59139  1  0
 59140  1  0
 60141  1  0
 60142  1  0
 63143  1  0
 63144  1  0
 64145  1  0
 64146  1  0
 65147  1  0
 65148  1  0
 69149  1  0
 70150  1  0
 72151  1  0
M  END
$$$$
