mol_bioactive_49
     RDKit          3D

151157  0  0  0  0  0  0  0  0999 V2000
    4.2592    0.4837   -2.3572 C   0  0  0  0  0  0  0  0  0  0  0  0
    4.6748    1.0266   -0.9905 C   0  0  2  0  0  0  0  0  0  0  0  0
    3.6905    0.6855   -0.0068 O   0  0  0  0  0  0  0  0  0  0  0  0
    3.9750   -0.5424    0.6516 C   0  0  0  0  0  0  0  0  0  0  0  0
    4.9719    2.5184   -1.0689 C   0  0  0  0  0  0  0  0  0  0  0  0
    6.3046    2.7924   -1.2376 N   0  0  0  0  0  0  0  0  0  0  0  0
    6.6865    4.0742   -1.4039 C   0  0  0  0  0  0  0  0  0  0  0  0
    5.8057    5.1329   -1.4313 C   0  0  0  0  0  0  0  0  0  0  0  0
    4.4562    4.8543   -1.2668 C   0  0  0  0  0  0  0  0  0  0  0  0
    4.0036    3.5374   -1.0698 C   0  0  0  0  0  0  0  0  0  0  0  0
    2.5536    3.3460   -0.9154 C   0  0  0  0  0  0  0  0  0  0  0  0
    1.6697    3.3589   -1.9849 N   0  0  0  0  0  0  0  0  0  0  0  0
    2.0314    3.5120   -3.3889 C   0  0  0  0  0  0  0  0  0  0  0  0
    1.7788    4.9204   -3.9036 C   0  0  0  0  0  0  0  0  0  0  0  0
    1.7936    3.1934    0.2476 C   0  0  0  0  0  0  0  0  0  0  0  0
    2.2972    3.0968    1.6746 C   0  0  0  0  0  0  0  0  0  0  0  0
    2.3354    4.3989    2.5282 C   0  0  0  0  0  0  0  0  0  0  0  0
    3.1400    5.5042    1.8194 C   0  0  0  0  0  0  0  0  0  0  0  0
    3.0805    4.0628    3.8413 C   0  0  0  0  0  0  0  0  0  0  0  0
    0.9276    4.9658    2.8413 C   0  0  0  0  0  0  0  0  0  0  0  0
    0.1986    4.2155    3.8415 O   0  0  0  0  0  0  0  0  0  0  0  0
    0.1305    4.8078    5.0785 C   0  0  0  0  0  0  0  0  0  0  0  0
   -0.9216    4.1331    5.9658 C   0  0  1  0  0  0  0  0  0  0  0  0
   -0.6984    2.6806    6.0928 N   0  0  0  0  0  0  0  0  0  0  0  0
   -1.7444    2.0954    6.8675 N   0  0  0  0  0  0  0  0  0  0  0  0
   -2.9520    1.6090    6.3296 C   0  0  0  0  0  0  0  0  0  0  0  0
   -3.0590    1.4862    4.8003 C   0  0  1  0  0  0  0  0  0  0  0  0
   -2.9705    0.0827    4.4230 N   0  0  0  0  0  0  0  0  0  0  0  0
   -1.7607   -0.4865    4.0855 C   0  0  0  0  0  0  0  0  0  0  0  0
   -1.8405   -1.9601    3.6061 C   0  0  2  0  0  0  0  0  0  0  0  0
   -1.6963   -2.9887    4.7552 C   0  0  0  0  0  0  0  0  0  0  0  0
   -1.7500   -4.4255    4.2115 C   0  0  0  0  0  0  0  0  0  0  0  0
   -2.7918   -2.8294    5.8184 C   0  0  0  0  0  0  0  0  0  0  0  0
   -0.8476   -2.1519    2.5176 N   0  0  0  0  0  0  0  0  0  0  0  0
   -1.3083   -2.2181    1.2012 C   0  0  0  0  0  0  0  0  0  0  0  0
   -0.2894   -2.2115    0.0400 C   0  0  0  0  0  0  0  0  0  0  0  0
   -0.7999   -3.0658   -1.1192 C   0  0  0  0  0  0  0  0  0  0  0  0
    0.1721   -3.0119   -2.2884 C   0  0  0  0  0  0  0  0  0  0  0  0
    0.4680   -1.6399   -2.6962 N   0  0  0  0  0  0  0  0  0  0  0  0
    0.9854   -1.3486   -3.9619 C   0  0  0  0  0  0  0  0  0  0  0  0
    1.1695   -2.4380   -4.8992 C   0  0  0  0  0  0  0  0  0  0  0  0
    1.4248   -3.3514   -5.6419 C   0  0  0  0  0  0  0  0  0  0  0  0
    1.8292   -4.4559   -6.5415 C   0  0  0  0  0  0  0  0  0  0  0  0
    2.1752   -5.6959   -5.7902 N   0  0  0  0  0  0  0  0  0  0  0  0
    3.2401   -5.5250   -4.7919 C   0  0  0  0  0  0  0  0  0  0  0  0
    1.0369   -6.3772   -5.1678 C   0  0  0  0  0  0  0  0  0  0  0  0
    0.6877   -4.7088   -7.5555 C   0  0  0  0  0  0  0  0  0  0  0  0
    3.0486   -3.9891   -7.3711 C   0  0  0  0  0  0  0  0  0  0  0  0
    1.3534   -0.2309   -4.3146 O   0  0  0  0  0  0  0  0  0  0  0  0
    0.8269   -0.7061   -1.6331 C   0  0  0  0  0  0  0  0  0  0  0  0
   -0.0928   -0.7724   -0.4284 C   0  0  0  0  0  0  0  0  0  0  0  0
   -2.5227   -2.2129    0.9516 O   0  0  0  0  0  0  0  0  0  0  0  0
    0.5702   -2.0835    2.8598 C   0  0  0  0  0  0  0  0  0  0  0  0
   -0.7140    0.1588    4.1602 O   0  0  0  0  0  0  0  0  0  0  0  0
   -4.3521    2.1323    4.2692 C   0  0  0  0  0  0  0  0  0  0  0  0
   -4.4715    2.1351    2.7280 C   0  0  1  0  0  0  0  0  0  0  0  0
   -3.1320    2.4485    2.0271 C   0  0  0  0  0  0  0  0  0  0  0  0
   -3.2330    2.3902    0.5551 N   0  0  0  0  0  0  0  0  0  0  0  0
   -3.8477    1.1064    0.1131 C   0  0  0  0  0  0  0  0  0  0  0  0
   -5.1598    0.8445    0.8766 C   0  0  0  0  0  0  0  0  0  0  0  0
   -4.9674    0.8476    2.3059 O   0  0  0  0  0  0  0  0  0  0  0  0
   -3.8877    1.2367    7.0496 O   0  0  0  0  0  0  0  0  0  0  0  0
   -1.7006    2.5068    8.2723 C   0  0  0  0  0  0  0  0  0  0  0  0
   -1.8833    4.0249    8.3366 C   0  0  0  0  0  0  0  0  0  0  0  0
   -0.9083    4.7406    7.3876 C   0  0  0  0  0  0  0  0  0  0  0  0
    0.7484    5.8189    5.4004 O   0  0  0  0  0  0  0  0  0  0  0  0
    0.4287    3.0388   -0.1658 C   0  0  0  0  0  0  0  0  0  0  0  0
    0.3751    3.1580   -1.5473 C   0  0  0  0  0  0  0  0  0  0  0  0
   -0.8389    3.0593   -2.2474 C   0  0  0  0  0  0  0  0  0  0  0  0
   -2.0131    2.8169   -1.5170 C   0  0  0  0  0  0  0  0  0  0  0  0
   -2.0137    2.6577   -0.1271 C   0  0  0  0  0  0  0  0  0  0  0  0
   -0.7755    2.7893    0.5329 C   0  0  0  0  0  0  0  0  0  0  0  0
    0.9316   -2.7241    0.3939 F   0  0  0  0  0  0  0  0  0  0  0  0
    4.1430   -0.6044   -2.3252 H   0  0  0  0  0  0  0  0  0  0  0  0
    3.2930    0.8905   -2.6673 H   0  0  0  0  0  0  0  0  0  0  0  0
    4.9993    0.7257   -3.1255 H   0  0  0  0  0  0  0  0  0  0  0  0
    5.6209    0.5406   -0.7121 H   0  0  0  0  0  0  0  0  0  0  0  0
    3.1317   -0.7828    1.3014 H   0  0  0  0  0  0  0  0  0  0  0  0
    4.1015   -1.3567   -0.0693 H   0  0  0  0  0  0  0  0  0  0  0  0
    4.8725   -0.4409    1.2681 H   0  0  0  0  0  0  0  0  0  0  0  0
    7.7550    4.2284   -1.5261 H   0  0  0  0  0  0  0  0  0  0  0  0
    6.1572    6.1477   -1.5751 H   0  0  0  0  0  0  0  0  0  0  0  0
    3.7430    5.6768   -1.2791 H   0  0  0  0  0  0  0  0  0  0  0  0
    3.0844    3.2473   -3.5162 H   0  0  0  0  0  0  0  0  0  0  0  0
    1.4524    2.7806   -3.9634 H   0  0  0  0  0  0  0  0  0  0  0  0
    2.3089    5.6704   -3.3068 H   0  0  0  0  0  0  0  0  0  0  0  0
    2.1159    5.0091   -4.9411 H   0  0  0  0  0  0  0  0  0  0  0  0
    0.7138    5.1707   -3.8727 H   0  0  0  0  0  0  0  0  0  0  0  0
    1.6933    2.3422    2.2016 H   0  0  0  0  0  0  0  0  0  0  0  0
    3.3095    2.6751    1.6407 H   0  0  0  0  0  0  0  0  0  0  0  0
    3.2578    6.3829    2.4656 H   0  0  0  0  0  0  0  0  0  0  0  0
    4.1465    5.1592    1.5660 H   0  0  0  0  0  0  0  0  0  0  0  0
    2.6377    5.8435    0.9095 H   0  0  0  0  0  0  0  0  0  0  0  0
    3.1654    4.9426    4.4853 H   0  0  0  0  0  0  0  0  0  0  0  0
    2.5710    3.2747    4.4047 H   0  0  0  0  0  0  0  0  0  0  0  0
    4.0995    3.7115    3.6390 H   0  0  0  0  0  0  0  0  0  0  0  0
    1.0014    6.0221    3.1348 H   0  0  0  0  0  0  0  0  0  0  0  0
    0.3089    4.9810    1.9411 H   0  0  0  0  0  0  0  0  0  0  0  0
   -1.8939    4.3328    5.4990 H   0  0  0  0  0  0  0  0  0  0  0  0
   -0.5306    2.1907    5.2068 H   0  0  0  0  0  0  0  0  0  0  0  0
   -2.2297    2.0235    4.3498 H   0  0  0  0  0  0  0  0  0  0  0  0
   -3.8321   -0.4518    4.3574 H   0  0  0  0  0  0  0  0  0  0  0  0
   -2.8441   -2.0918    3.1822 H   0  0  0  0  0  0  0  0  0  0  0  0
   -0.7338   -2.8554    5.2636 H   0  0  0  0  0  0  0  0  0  0  0  0
   -1.6858   -5.1549    5.0260 H   0  0  0  0  0  0  0  0  0  0  0  0
   -2.6836   -4.6080    3.6692 H   0  0  0  0  0  0  0  0  0  0  0  0
   -0.9167   -4.6263    3.5330 H   0  0  0  0  0  0  0  0  0  0  0  0
   -2.7143   -3.6175    6.5763 H   0  0  0  0  0  0  0  0  0  0  0  0
   -2.7046   -1.8740    6.3414 H   0  0  0  0  0  0  0  0  0  0  0  0
   -3.7896   -2.8910    5.3704 H   0  0  0  0  0  0  0  0  0  0  0  0
   -0.9154   -4.1072   -0.7975 H   0  0  0  0  0  0  0  0  0  0  0  0
   -1.7864   -2.7193   -1.4530 H   0  0  0  0  0  0  0  0  0  0  0  0
    1.1237   -3.4944   -2.0317 H   0  0  0  0  0  0  0  0  0  0  0  0
   -0.2586   -3.5647   -3.1298 H   0  0  0  0  0  0  0  0  0  0  0  0
    2.9190   -4.9161   -3.9413 H   0  0  0  0  0  0  0  0  0  0  0  0
    3.5485   -6.5026   -4.4004 H   0  0  0  0  0  0  0  0  0  0  0  0
    4.1454   -5.0842   -5.2149 H   0  0  0  0  0  0  0  0  0  0  0  0
    1.3696   -7.3057   -4.6914 H   0  0  0  0  0  0  0  0  0  0  0  0
    0.5439   -5.7593   -4.4096 H   0  0  0  0  0  0  0  0  0  0  0  0
    0.2935   -6.6894   -5.9111 H   0  0  0  0  0  0  0  0  0  0  0  0
   -0.2717   -4.9006   -7.0622 H   0  0  0  0  0  0  0  0  0  0  0  0
    0.5298   -3.8356   -8.2011 H   0  0  0  0  0  0  0  0  0  0  0  0
    0.9176   -5.5605   -8.2079 H   0  0  0  0  0  0  0  0  0  0  0  0
    3.8627   -3.6054   -6.7439 H   0  0  0  0  0  0  0  0  0  0  0  0
    3.4495   -4.8055   -7.9866 H   0  0  0  0  0  0  0  0  0  0  0  0
    2.7787   -3.1703   -8.0505 H   0  0  0  0  0  0  0  0  0  0  0  0
    1.8492   -0.9573   -1.3337 H   0  0  0  0  0  0  0  0  0  0  0  0
    0.8485    0.3136   -2.0254 H   0  0  0  0  0  0  0  0  0  0  0  0
   -1.0618   -0.3322   -0.6908 H   0  0  0  0  0  0  0  0  0  0  0  0
    0.3301   -0.1607    0.3765 H   0  0  0  0  0  0  0  0  0  0  0  0
    0.7214   -1.9186    3.9296 H   0  0  0  0  0  0  0  0  0  0  0  0
    1.0437   -3.0341    2.5976 H   0  0  0  0  0  0  0  0  0  0  0  0
    1.0404   -1.2642    2.3119 H   0  0  0  0  0  0  0  0  0  0  0  0
   -5.2268    1.6290    4.7001 H   0  0  0  0  0  0  0  0  0  0  0  0
   -4.3781    3.1729    4.6199 H   0  0  0  0  0  0  0  0  0  0  0  0
   -5.2247    2.8863    2.4482 H   0  0  0  0  0  0  0  0  0  0  0  0
   -2.7874    3.4392    2.3501 H   0  0  0  0  0  0  0  0  0  0  0  0
   -2.4047    1.6865    2.3189 H   0  0  0  0  0  0  0  0  0  0  0  0
   -4.0679    1.1154   -0.9588 H   0  0  0  0  0  0  0  0  0  0  0  0
   -3.1511    0.2859    0.3225 H   0  0  0  0  0  0  0  0  0  0  0  0
   -5.9183    1.5984    0.6229 H   0  0  0  0  0  0  0  0  0  0  0  0
   -5.5596   -0.1376    0.5984 H   0  0  0  0  0  0  0  0  0  0  0  0
   -2.4779    2.0031    8.8550 H   0  0  0  0  0  0  0  0  0  0  0  0
   -0.7264    2.2144    8.6820 H   0  0  0  0  0  0  0  0  0  0  0  0
   -2.9096    4.2803    8.0414 H   0  0  0  0  0  0  0  0  0  0  0  0
   -1.7417    4.3815    9.3621 H   0  0  0  0  0  0  0  0  0  0  0  0
    0.1040    4.6815    7.8101 H   0  0  0  0  0  0  0  0  0  0  0  0
   -1.1636    5.8071    7.3438 H   0  0  0  0  0  0  0  0  0  0  0  0
   -0.8832    3.1582   -3.3263 H   0  0  0  0  0  0  0  0  0  0  0  0
   -2.9519    2.7661   -2.0650 H   0  0  0  0  0  0  0  0  0  0  0  0
   -0.6860    2.6749    1.6052 H   0  0  0  0  0  0  0  0  0  0  0  0
  1  2  1  0
  2  3  1  0
  2  5  1  0
  3  4  1  0
  5  6  2  0
  5 10  1  0
  6  7  1  0
  7  8  2  0
  8  9  1  0
  9 10  2  0
 10 11  1  0
 11 12  1  0
 11 15  2  0
 12 13  1  0
 12 68  1  0
 13 14  1  0
 15 16  1  0
 15 67  1  0
 16 17  1  0
 17 18  1  0
 17 19  1  0
 17 20  1  0
 20 21  1  0
 21 22  1  0
 22 23  1  0
 22 66  2  0
 23 24  1  0
 23 65  1  0
 24 25  1  0
 25 26  1  0
 25 63  1  0
 26 27  1  0
 26 62  2  0
 27 28  1  0
 27 55  1  0
 28 29  1  0
 29 30  1  0
 29 54  2  0
 30 31  1  0
 30 34  1  0
 31 32  1  0
 31 33  1  0
 34 35  1  0
 34 53  1  0
 35 36  1  0
 35 52  2  0
 36 37  1  0
 36 51  1  0
 36 73  1  0
 37 38  1  0
 38 39  1  0
 39 40  1  0
 39 50  1  0
 40 41  1  0
 40 49  2  0
 42 43  1  0
 43 44  1  0
 43 47  1  0
 43 48  1  0
 44 45  1  0
 44 46  1  0
 50 51  1  0
 55 56  1  0
 56 57  1  0
 56 61  1  0
 57 58  1  0
 58 59  1  0
 58 71  1  0
 59 60  1  0
 60 61  1  0
 63 64  1  0
 64 65  1  0
 67 68  2  0
 67 72  1  0
 68 69  1  0
 69 70  2  0
 70 71  1  0
 71 72  2  0
 41 42  3  0
  1 74  1  0
  1 75  1  0
  1 76  1  0
  2 77  1  1
  4 78  1  0
  4 79  1  0
  4 80  1  0
  7 81  1  0
  8 82  1  0
  9 83  1  0
 13 84  1  0
 13 85  1  0
 14 86  1  0
 14 87  1  0
 14 88  1  0
 16 89  1  0
 16 90  1  0
 18 91  1  0
 18 92  1  0
 18 93  1  0
 19 94  1  0
 19 95  1  0
 19 96  1  0
 20 97  1  0
 20 98  1  0
 23 99  1  6
 24100  1  0
 27101  1  6
 28102  1  0
 30103  1  6
 31104  1  0
 32105  1  0
 32106  1  0
 32107  1  0
 33108  1  0
 33109  1  0
 33110  1  0
 37111  1  0
 37112  1  0
 38113  1  0
 38114  1  0
 45115  1  0
 45116  1  0
 45117  1  0
 46118  1  0
 46119  1  0
 46120  1  0
 47121  1  0
 47122  1  0
 47123  1  0
 48124  1  0
 48125  1  0
 48126  1  0
 50127  1  0
 50128  1  0
 51129  1  0
 51130  1  0
 53131  1  0
 53132  1  0
 53133  1  0
 55134  1  0
 55135  1  0
 56136  1  1
 57137  1  0
 57138  1  0
 59139  1  0
 59140  1  0
 60141  1  0
 60142  1  0
 63143  1  0
 63144  1  0
 64145  1  0
 64146  1  0
 65147  1  0
 65148  1  0
 69149  1  0
 70150  1  0
 72151  1  0
M  END
$$$$
