mol_bioactive_41
     RDKit          3D

151157  0  0  0  0  0  0  0  0999 V2000
   -1.1667   -3.1768   -3.4369 C   0  0  0  0  0  0  0  0  0  0  0  0
   -0.0007   -2.2053   -3.6003 C   0  0  2  0  0  0  0  0  0  0  0  0
   -0.0072   -1.7627   -4.9734 O   0  0  0  0  0  0  0  0  0  0  0  0
   -0.1556   -0.3567   -5.0957 C   0  0  0  0  0  0  0  0  0  0  0  0
    1.3280   -2.8914   -3.3040 C   0  0  0  0  0  0  0  0  0  0  0  0
    1.6770   -3.9101   -4.1487 N   0  0  0  0  0  0  0  0  0  0  0  0
    2.8819   -4.4924   -3.9902 C   0  0  0  0  0  0  0  0  0  0  0  0
    3.7874   -4.1186   -3.0203 C   0  0  0  0  0  0  0  0  0  0  0  0
    3.4244   -3.0980   -2.1505 C   0  0  0  0  0  0  0  0  0  0  0  0
    2.1725   -2.4759   -2.2622 C   0  0  0  0  0  0  0  0  0  0  0  0
    1.8284   -1.4228   -1.2995 C   0  0  0  0  0  0  0  0  0  0  0  0
    2.2458   -0.1077   -1.4465 N   0  0  0  0  0  0  0  0  0  0  0  0
    3.0418    0.4166   -2.5495 C   0  0  0  0  0  0  0  0  0  0  0  0
    4.5179    0.5162   -2.2032 C   0  0  0  0  0  0  0  0  0  0  0  0
    1.0507   -1.4885   -0.1416 C   0  0  0  0  0  0  0  0  0  0  0  0
    0.2944   -2.6684    0.4286 C   0  0  0  0  0  0  0  0  0  0  0  0
    1.0230   -3.6058    1.4314 C   0  0  0  0  0  0  0  0  0  0  0  0
    0.0005   -4.6700    1.8954 C   0  0  0  0  0  0  0  0  0  0  0  0
    2.1763   -4.3505    0.7351 C   0  0  0  0  0  0  0  0  0  0  0  0
    1.6099   -2.8807    2.6690 C   0  0  0  0  0  0  0  0  0  0  0  0
    0.6052   -2.5095    3.6365 O   0  0  0  0  0  0  0  0  0  0  0  0
    1.0849   -2.4336    4.9185 C   0  0  0  0  0  0  0  0  0  0  0  0
    0.0046   -2.1171    5.9616 C   0  0  1  0  0  0  0  0  0  0  0  0
   -1.3476   -2.4845    5.5049 N   0  0  0  0  0  0  0  0  0  0  0  0
   -2.3262   -2.1751    6.4887 N   0  0  0  0  0  0  0  0  0  0  0  0
   -3.2022   -1.0793    6.4600 C   0  0  0  0  0  0  0  0  0  0  0  0
   -2.9851   -0.0194    5.3651 C   0  0  1  0  0  0  0  0  0  0  0  0
   -4.2498    0.4137    4.7982 N   0  0  0  0  0  0  0  0  0  0  0  0
   -4.7871   -0.2137    3.6950 C   0  0  0  0  0  0  0  0  0  0  0  0
   -6.1062    0.4094    3.1654 C   0  0  2  0  0  0  0  0  0  0  0  0
   -7.3648   -0.2991    3.7295 C   0  0  0  0  0  0  0  0  0  0  0  0
   -8.6358    0.4647    3.3268 C   0  0  0  0  0  0  0  0  0  0  0  0
   -7.3396   -0.4106    5.2599 C   0  0  0  0  0  0  0  0  0  0  0  0
   -6.0004    0.4380    1.6788 N   0  0  0  0  0  0  0  0  0  0  0  0
   -5.2758    1.5045    1.1394 C   0  0  0  0  0  0  0  0  0  0  0  0
   -4.8676    1.5056   -0.3531 C   0  0  0  0  0  0  0  0  0  0  0  0
   -4.4647    2.9368   -0.7636 C   0  0  0  0  0  0  0  0  0  0  0  0
   -3.9108    2.9682   -2.1772 C   0  0  0  0  0  0  0  0  0  0  0  0
   -2.8185    2.0125   -2.3002 N   0  0  0  0  0  0  0  0  0  0  0  0
   -1.4839    2.3486   -2.4764 C   0  0  0  0  0  0  0  0  0  0  0  0
   -1.1015    3.7421   -2.4354 C   0  0  0  0  0  0  0  0  0  0  0  0
   -0.7315    4.8854   -2.3794 C   0  0  0  0  0  0  0  0  0  0  0  0
   -0.2435    6.2814   -2.3051 C   0  0  0  0  0  0  0  0  0  0  0  0
   -0.2260    6.9445   -3.6381 N   0  0  0  0  0  0  0  0  0  0  0  0
    0.7131    6.3490   -4.5943 C   0  0  0  0  0  0  0  0  0  0  0  0
   -1.5440    7.0707   -4.2674 C   0  0  0  0  0  0  0  0  0  0  0  0
    1.1719    6.2689   -1.6815 C   0  0  0  0  0  0  0  0  0  0  0  0
   -1.1446    7.0661   -1.3234 C   0  0  0  0  0  0  0  0  0  0  0  0
   -0.5949    1.5254   -2.6611 O   0  0  0  0  0  0  0  0  0  0  0  0
   -3.1763    0.6322   -2.0145 C   0  0  0  0  0  0  0  0  0  0  0  0
   -3.7064    0.5233   -0.5882 C   0  0  0  0  0  0  0  0  0  0  0  0
   -4.9072    2.4354    1.8677 O   0  0  0  0  0  0  0  0  0  0  0  0
   -6.3928   -0.7600    0.9373 C   0  0  0  0  0  0  0  0  0  0  0  0
   -4.2395   -1.1878    3.1762 O   0  0  0  0  0  0  0  0  0  0  0  0
   -2.1957    1.1598    5.9720 C   0  0  0  0  0  0  0  0  0  0  0  0
   -1.6273    2.1588    4.9494 C   0  0  1  0  0  0  0  0  0  0  0  0
   -0.9202    1.4443    3.7874 C   0  0  0  0  0  0  0  0  0  0  0  0
   -0.3739    2.4041    2.8118 N   0  0  0  0  0  0  0  0  0  0  0  0
   -1.4457    3.3176    2.3304 C   0  0  0  0  0  0  0  0  0  0  0  0
   -2.1755    3.9622    3.5259 C   0  0  0  0  0  0  0  0  0  0  0  0
   -2.6919    2.9882    4.4542 O   0  0  0  0  0  0  0  0  0  0  0  0
   -4.0666   -0.9048    7.3272 O   0  0  0  0  0  0  0  0  0  0  0  0
   -2.2006   -2.9877    7.6989 C   0  0  0  0  0  0  0  0  0  0  0  0
   -0.8222   -2.7254    8.3097 C   0  0  0  0  0  0  0  0  0  0  0  0
    0.2916   -2.8963    7.2641 C   0  0  0  0  0  0  0  0  0  0  0  0
    2.2706   -2.5512    5.2180 O   0  0  0  0  0  0  0  0  0  0  0  0
    0.9746   -0.1539    0.3765 C   0  0  0  0  0  0  0  0  0  0  0  0
    1.7277    0.6815   -0.4377 C   0  0  0  0  0  0  0  0  0  0  0  0
    1.8330    2.0591   -0.1860 C   0  0  0  0  0  0  0  0  0  0  0  0
    1.1267    2.5936    0.9025 C   0  0  0  0  0  0  0  0  0  0  0  0
    0.3322    1.8014    1.7368 C   0  0  0  0  0  0  0  0  0  0  0  0
    0.2889    0.4199    1.4681 C   0  0  0  0  0  0  0  0  0  0  0  0
   -5.9122    1.1505   -1.1678 F   0  0  0  0  0  0  0  0  0  0  0  0
   -1.2112   -3.5907   -2.4253 H   0  0  0  0  0  0  0  0  0  0  0  0
   -2.1135   -2.6659   -3.6452 H   0  0  0  0  0  0  0  0  0  0  0  0
   -1.0998   -4.0095   -4.1476 H   0  0  0  0  0  0  0  0  0  0  0  0
   -0.1701   -1.3573   -2.9296 H   0  0  0  0  0  0  0  0  0  0  0  0
    0.6479    0.1663   -4.5687 H   0  0  0  0  0  0  0  0  0  0  0  0
   -0.0986   -0.0975   -6.1560 H   0  0  0  0  0  0  0  0  0  0  0  0
   -1.1357   -0.0494   -4.7187 H   0  0  0  0  0  0  0  0  0  0  0  0
    3.1079   -5.2879   -4.6935 H   0  0  0  0  0  0  0  0  0  0  0  0
    4.7503   -4.6084   -2.9375 H   0  0  0  0  0  0  0  0  0  0  0  0
    4.1182   -2.7893   -1.3719 H   0  0  0  0  0  0  0  0  0  0  0  0
    2.8972   -0.2206   -3.4271 H   0  0  0  0  0  0  0  0  0  0  0  0
    2.6418    1.4013   -2.8125 H   0  0  0  0  0  0  0  0  0  0  0  0
    4.6807    1.1512   -1.3257 H   0  0  0  0  0  0  0  0  0  0  0  0
    4.9435   -0.4681   -1.9828 H   0  0  0  0  0  0  0  0  0  0  0  0
    5.0743    0.9453   -3.0415 H   0  0  0  0  0  0  0  0  0  0  0  0
   -0.6190   -2.2863    0.9063 H   0  0  0  0  0  0  0  0  0  0  0  0
   -0.0666   -3.2719   -0.4146 H   0  0  0  0  0  0  0  0  0  0  0  0
    0.4543   -5.3676    2.6091 H   0  0  0  0  0  0  0  0  0  0  0  0
   -0.8675   -4.2123    2.3813 H   0  0  0  0  0  0  0  0  0  0  0  0
   -0.3671   -5.2573    1.0459 H   0  0  0  0  0  0  0  0  0  0  0  0
    2.5705   -5.1525    1.3708 H   0  0  0  0  0  0  0  0  0  0  0  0
    1.8467   -4.8129   -0.2010 H   0  0  0  0  0  0  0  0  0  0  0  0
    3.0108   -3.6755    0.5271 H   0  0  0  0  0  0  0  0  0  0  0  0
    2.3281   -3.5652    3.1396 H   0  0  0  0  0  0  0  0  0  0  0  0
    2.1607   -1.9796    2.3801 H   0  0  0  0  0  0  0  0  0  0  0  0
    0.0554   -1.0368    6.1428 H   0  0  0  0  0  0  0  0  0  0  0  0
   -1.5713   -2.1640    4.5617 H   0  0  0  0  0  0  0  0  0  0  0  0
   -2.4168   -0.4748    4.5610 H   0  0  0  0  0  0  0  0  0  0  0  0
   -4.7455    1.1764    5.2465 H   0  0  0  0  0  0  0  0  0  0  0  0
   -6.1350    1.4483    3.5208 H   0  0  0  0  0  0  0  0  0  0  0  0
   -7.4303   -1.3194    3.3319 H   0  0  0  0  0  0  0  0  0  0  0  0
   -8.6377    1.4761    3.7524 H   0  0  0  0  0  0  0  0  0  0  0  0
   -8.7322    0.5584    2.2411 H   0  0  0  0  0  0  0  0  0  0  0  0
   -9.5304   -0.0531    3.6907 H   0  0  0  0  0  0  0  0  0  0  0  0
   -7.2033    0.5705    5.7281 H   0  0  0  0  0  0  0  0  0  0  0  0
   -8.2786   -0.8326    5.6343 H   0  0  0  0  0  0  0  0  0  0  0  0
   -6.5352   -1.0697    5.5991 H   0  0  0  0  0  0  0  0  0  0  0  0
   -5.3373    3.5978   -0.7058 H   0  0  0  0  0  0  0  0  0  0  0  0
   -3.7055    3.3357   -0.0797 H   0  0  0  0  0  0  0  0  0  0  0  0
   -4.6825    2.6816   -2.9007 H   0  0  0  0  0  0  0  0  0  0  0  0
   -3.5916    3.9820   -2.4356 H   0  0  0  0  0  0  0  0  0  0  0  0
    1.7468    6.4106   -4.2410 H   0  0  0  0  0  0  0  0  0  0  0  0
    0.4788    5.3029   -4.8198 H   0  0  0  0  0  0  0  0  0  0  0  0
    0.6996    6.9038   -5.5400 H   0  0  0  0  0  0  0  0  0  0  0  0
   -2.2334    7.6588   -3.6540 H   0  0  0  0  0  0  0  0  0  0  0  0
   -1.4631    7.6163   -5.2157 H   0  0  0  0  0  0  0  0  0  0  0  0
   -2.0031    6.0994   -4.4812 H   0  0  0  0  0  0  0  0  0  0  0  0
    1.1450    5.9202   -0.6409 H   0  0  0  0  0  0  0  0  0  0  0  0
    1.8566    5.5921   -2.2075 H   0  0  0  0  0  0  0  0  0  0  0  0
    1.6152    7.2714   -1.6778 H   0  0  0  0  0  0  0  0  0  0  0  0
   -1.0479    6.6799   -0.3005 H   0  0  0  0  0  0  0  0  0  0  0  0
   -0.8747    8.1284   -1.2987 H   0  0  0  0  0  0  0  0  0  0  0  0
   -2.2086    6.9874   -1.5774 H   0  0  0  0  0  0  0  0  0  0  0  0
   -3.9396    0.3254   -2.7385 H   0  0  0  0  0  0  0  0  0  0  0  0
   -2.3173   -0.0342   -2.1399 H   0  0  0  0  0  0  0  0  0  0  0  0
   -2.8966    0.7357    0.1222 H   0  0  0  0  0  0  0  0  0  0  0  0
   -4.0174   -0.5109   -0.4140 H   0  0  0  0  0  0  0  0  0  0  0  0
   -5.8413   -1.6244    1.3155 H   0  0  0  0  0  0  0  0  0  0  0  0
   -7.4632   -0.9339    1.0688 H   0  0  0  0  0  0  0  0  0  0  0  0
   -6.2113   -0.6847   -0.1327 H   0  0  0  0  0  0  0  0  0  0  0  0
   -2.8401    1.6981    6.6786 H   0  0  0  0  0  0  0  0  0  0  0  0
   -1.3580    0.7595    6.5544 H   0  0  0  0  0  0  0  0  0  0  0  0
   -0.9182    2.8123    5.4743 H   0  0  0  0  0  0  0  0  0  0  0  0
   -0.1218    0.8098    4.1902 H   0  0  0  0  0  0  0  0  0  0  0  0
   -1.6581    0.8330    3.2580 H   0  0  0  0  0  0  0  0  0  0  0  0
   -1.0405    4.1139    1.6973 H   0  0  0  0  0  0  0  0  0  0  0  0
   -2.1685    2.7409    1.7402 H   0  0  0  0  0  0  0  0  0  0  0  0
   -1.5067    4.6413    4.0675 H   0  0  0  0  0  0  0  0  0  0  0  0
   -3.0244    4.5515    3.1634 H   0  0  0  0  0  0  0  0  0  0  0  0
   -2.9860   -2.7476    8.4215 H   0  0  0  0  0  0  0  0  0  0  0  0
   -2.3098   -4.0418    7.4158 H   0  0  0  0  0  0  0  0  0  0  0  0
   -0.7864   -1.6989    8.6963 H   0  0  0  0  0  0  0  0  0  0  0  0
   -0.6500   -3.3984    9.1564 H   0  0  0  0  0  0  0  0  0  0  0  0
    0.4083   -3.9654    7.0384 H   0  0  0  0  0  0  0  0  0  0  0  0
    1.2437   -2.5647    7.6976 H   0  0  0  0  0  0  0  0  0  0  0  0
    2.4252    2.7096   -0.8207 H   0  0  0  0  0  0  0  0  0  0  0  0
    1.2168    3.6594    1.1012 H   0  0  0  0  0  0  0  0  0  0  0  0
   -0.3032   -0.2562    2.0705 H   0  0  0  0  0  0  0  0  0  0  0  0
  1  2  1  0
  2  3  1  0
  2  5  1  0
  3  4  1  0
  5  6  2  0
  5 10  1  0
  6  7  1  0
  7  8  2  0
  8  9  1  0
  9 10  2  0
 10 11  1  0
 11 12  1  0
 11 15  2  0
 12 13  1  0
 12 68  1  0
 13 14  1  0
 15 16  1  0
 15 67  1  0
 16 17  1  0
 17 18  1  0
 17 19  1  0
 17 20  1  0
 20 21  1  0
 21 22  1  0
 22 23  1  0
 22 66  2  0
 23 24  1  0
 23 65  1  0
 24 25  1  0
 25 26  1  0
 25 63  1  0
 26 27  1  0
 26 62  2  0
 27 28  1  0
 27 55  1  0
 28 29  1  0
 29 30  1  0
 29 54  2  0
 30 31  1  0
 30 34  1  0
 31 32  1  0
 31 33  1  0
 34 35  1  0
 34 53  1  0
 35 36  1  0
 35 52  2  0
 36 37  1  0
 36 51  1  0
 36 73  1  0
 37 38  1  0
 38 39  1  0
 39 40  1  0
 39 50  1  0
 40 41  1  0
 40 49  2  0
 42 43  1  0
 43 44  1  0
 43 47  1  0
 43 48  1  0
 44 45  1  0
 44 46  1  0
 50 51  1  0
 55 56  1  0
 56 57  1  0
 56 61  1  0
 57 58  1  0
 58 59  1  0
 58 71  1  0
 59 60  1  0
 60 61  1  0
 63 64  1  0
 64 65  1  0
 67 68  2  0
 67 72  1  0
 68 69  1  0
 69 70  2  0
 70 71  1  0
 71 72  2  0
 41 42  3  0
  1 74  1  0
  1 75  1  0
  1 76  1  0
  2 77  1  1
  4 78  1  0
  4 79  1  0
  4 80  1  0
  7 81  1  0
  8 82  1  0
  9 83  1  0
 13 84  1  0
 13 85  1  0
 14 86  1  0
 14 87  1  0
 14 88  1  0
 16 89  1  0
 16 90  1  0
 18 91  1  0
 18 92  1  0
 18 93  1  0
 19 94  1  0
 19 95  1  0
 19 96  1  0
 20 97  1  0
 20 98  1  0
 23 99  1  1
 24100  1  0
 27101  1  6
 28102  1  0
 30103  1  1
 31104  1  0
 32105  1  0
 32106  1  0
 32107  1  0
 33108  1  0
 33109  1  0
 33110  1  0
 37111  1  0
 37112  1  0
 38113  1  0
 38114  1  0
 45115  1  0
 45116  1  0
 45117  1  0
 46118  1  0
 46119  1  0
 46120  1  0
 47121  1  0
 47122  1  0
 47123  1  0
 48124  1  0
 48125  1  0
 48126  1  0
 50127  1  0
 50128  1  0
 51129  1  0
 51130  1  0
 53131  1  0
 53132  1  0
 53133  1  0
 55134  1  0
 55135  1  0
 56136  1  1
 57137  1  0
 57138  1  0
 59139  1  0
 59140  1  0
 60141  1  0
 60142  1  0
 63143  1  0
 63144  1  0
 64145  1  0
 64146  1  0
 65147  1  0
 65148  1  0
 69149  1  0
 70150  1  0
 72151  1  0
M  END
$$$$
