mol_bioactive_39
     RDKit          3D

151157  0  0  0  0  0  0  0  0999 V2000
    0.9094   -4.1042   -3.0147 C   0  0  0  0  0  0  0  0  0  0  0  0
    1.8550   -4.2496   -1.8244 C   0  0  2  0  0  0  0  0  0  0  0  0
    1.4655   -3.3907   -0.7480 O   0  0  0  0  0  0  0  0  0  0  0  0
    0.4633   -3.9465    0.0866 C   0  0  0  0  0  0  0  0  0  0  0  0
    3.3074   -4.0378   -2.2420 C   0  0  0  0  0  0  0  0  0  0  0  0
    4.0118   -5.2054   -2.3820 N   0  0  0  0  0  0  0  0  0  0  0  0
    5.2938   -5.1389   -2.7947 C   0  0  0  0  0  0  0  0  0  0  0  0
    5.9363   -3.9586   -3.1010 C   0  0  0  0  0  0  0  0  0  0  0  0
    5.2197   -2.7758   -2.9687 C   0  0  0  0  0  0  0  0  0  0  0  0
    3.8864   -2.7885   -2.5313 C   0  0  0  0  0  0  0  0  0  0  0  0
    3.1916   -1.4991   -2.4184 C   0  0  0  0  0  0  0  0  0  0  0  0
    2.6428   -0.8276   -3.5028 N   0  0  0  0  0  0  0  0  0  0  0  0
    2.6965   -1.2628   -4.8927 C   0  0  0  0  0  0  0  0  0  0  0  0
    3.7971   -0.5661   -5.6754 C   0  0  0  0  0  0  0  0  0  0  0  0
    2.9730   -0.7120   -1.2875 C   0  0  0  0  0  0  0  0  0  0  0  0
    3.4041   -0.9934    0.1370 C   0  0  0  0  0  0  0  0  0  0  0  0
    4.7145   -0.3124    0.6376 C   0  0  0  0  0  0  0  0  0  0  0  0
    5.8956   -0.6393   -0.2957 C   0  0  0  0  0  0  0  0  0  0  0  0
    5.0427   -0.9073    2.0250 C   0  0  0  0  0  0  0  0  0  0  0  0
    4.6014    1.2299    0.7460 C   0  0  0  0  0  0  0  0  0  0  0  0
    3.7666    1.6723    1.8422 O   0  0  0  0  0  0  0  0  0  0  0  0
    4.4274    2.2754    2.8836 C   0  0  0  0  0  0  0  0  0  0  0  0
    3.4545    2.9069    3.8915 C   0  0  1  0  0  0  0  0  0  0  0  0
    2.3158    2.0131    4.1739 N   0  0  0  0  0  0  0  0  0  0  0  0
    1.4086    2.6142    5.0932 N   0  0  0  0  0  0  0  0  0  0  0  0
    0.0597    2.9090    4.8446 C   0  0  0  0  0  0  0  0  0  0  0  0
   -0.4095    2.9165    3.3782 C   0  0  1  0  0  0  0  0  0  0  0  0
   -1.7790    2.4383    3.2598 N   0  0  0  0  0  0  0  0  0  0  0  0
   -2.0473    1.1010    3.0573 C   0  0  0  0  0  0  0  0  0  0  0  0
   -3.5512    0.7419    2.9296 C   0  0  2  0  0  0  0  0  0  0  0  0
   -4.1330    0.2107    4.2650 C   0  0  0  0  0  0  0  0  0  0  0  0
   -5.6495    0.0011    4.1502 C   0  0  0  0  0  0  0  0  0  0  0  0
   -3.8639    1.1624    5.4377 C   0  0  0  0  0  0  0  0  0  0  0  0
   -3.6864   -0.1812    1.7642 N   0  0  0  0  0  0  0  0  0  0  0  0
   -3.7800    0.4251    0.5084 C   0  0  0  0  0  0  0  0  0  0  0  0
   -3.5932   -0.4079   -0.7857 C   0  0  0  0  0  0  0  0  0  0  0  0
   -2.1174   -0.7874   -0.9616 C   0  0  0  0  0  0  0  0  0  0  0  0
   -1.8657   -1.4612   -2.3041 C   0  0  0  0  0  0  0  0  0  0  0  0
   -2.3876   -0.6631   -3.4023 N   0  0  0  0  0  0  0  0  0  0  0  0
   -1.7139   -0.6909   -4.6185 C   0  0  0  0  0  0  0  0  0  0  0  0
   -2.1183    0.2562   -5.6359 C   0  0  0  0  0  0  0  0  0  0  0  0
   -2.4016    1.0977   -6.4472 C   0  0  0  0  0  0  0  0  0  0  0  0
   -2.7256    2.1745   -7.4120 C   0  0  0  0  0  0  0  0  0  0  0  0
   -1.6240    2.4209   -8.3828 N   0  0  0  0  0  0  0  0  0  0  0  0
   -0.3707    2.8785   -7.7743 C   0  0  0  0  0  0  0  0  0  0  0  0
   -1.3429    1.2895   -9.2729 C   0  0  0  0  0  0  0  0  0  0  0  0
   -3.0374    3.4631   -6.6129 C   0  0  0  0  0  0  0  0  0  0  0  0
   -4.0309    1.7944   -8.1499 C   0  0  0  0  0  0  0  0  0  0  0  0
   -0.7654   -1.4242   -4.8694 O   0  0  0  0  0  0  0  0  0  0  0  0
   -3.7919   -0.2896   -3.3021 C   0  0  0  0  0  0  0  0  0  0  0  0
   -4.0812    0.4134   -1.9893 C   0  0  0  0  0  0  0  0  0  0  0  0
   -3.9640    1.6461    0.4234 O   0  0  0  0  0  0  0  0  0  0  0  0
   -3.4140   -1.6032    1.9748 C   0  0  0  0  0  0  0  0  0  0  0  0
   -1.1458    0.2662    2.9770 O   0  0  0  0  0  0  0  0  0  0  0  0
   -0.2451    4.3433    2.8133 C   0  0  0  0  0  0  0  0  0  0  0  0
   -0.4602    4.4790    1.2934 C   0  0  1  0  0  0  0  0  0  0  0  0
    0.2769    3.3747    0.5228 C   0  0  0  0  0  0  0  0  0  0  0  0
    0.0458    3.4317   -0.9344 N   0  0  0  0  0  0  0  0  0  0  0  0
   -1.4100    3.5020   -1.2330 C   0  0  0  0  0  0  0  0  0  0  0  0
   -2.0885    4.6080   -0.4022 C   0  0  0  0  0  0  0  0  0  0  0  0
   -1.8688    4.4481    1.0114 O   0  0  0  0  0  0  0  0  0  0  0  0
   -0.7147    3.2576    5.7429 O   0  0  0  0  0  0  0  0  0  0  0  0
    1.9812    2.8276    6.4236 C   0  0  0  0  0  0  0  0  0  0  0  0
    3.2116    3.7258    6.2953 C   0  0  0  0  0  0  0  0  0  0  0  0
    4.1744    3.2010    5.2227 C   0  0  0  0  0  0  0  0  0  0  0  0
    5.6471    2.3846    2.9626 O   0  0  0  0  0  0  0  0  0  0  0  0
    2.1426    0.3757   -1.7044 C   0  0  0  0  0  0  0  0  0  0  0  0
    1.9709    0.3031   -3.0791 C   0  0  0  0  0  0  0  0  0  0  0  0
    1.2233    1.2664   -3.7753 C   0  0  0  0  0  0  0  0  0  0  0  0
    0.6091    2.2982   -3.0429 C   0  0  0  0  0  0  0  0  0  0  0  0
    0.7061    2.3896   -1.6500 C   0  0  0  0  0  0  0  0  0  0  0  0
    1.5064    1.4228   -1.0083 C   0  0  0  0  0  0  0  0  0  0  0  0
   -4.3439   -1.5548   -0.7688 F   0  0  0  0  0  0  0  0  0  0  0  0
   -0.1103   -4.3920   -2.7404 H   0  0  0  0  0  0  0  0  0  0  0  0
    0.8553   -3.0689   -3.3568 H   0  0  0  0  0  0  0  0  0  0  0  0
    1.2251   -4.7299   -3.8561 H   0  0  0  0  0  0  0  0  0  0  0  0
    1.7856   -5.2887   -1.4716 H   0  0  0  0  0  0  0  0  0  0  0  0
    0.2462   -3.2297    0.8842 H   0  0  0  0  0  0  0  0  0  0  0  0
   -0.4588   -4.1257   -0.4729 H   0  0  0  0  0  0  0  0  0  0  0  0
    0.8138   -4.8759    0.5462 H   0  0  0  0  0  0  0  0  0  0  0  0
    5.8038   -6.0944   -2.8771 H   0  0  0  0  0  0  0  0  0  0  0  0
    6.9686   -3.9556   -3.4303 H   0  0  0  0  0  0  0  0  0  0  0  0
    5.7082   -1.8325   -3.1998 H   0  0  0  0  0  0  0  0  0  0  0  0
    2.8354   -2.3476   -4.9208 H   0  0  0  0  0  0  0  0  0  0  0  0
    1.7241   -1.0582   -5.3499 H   0  0  0  0  0  0  0  0  0  0  0  0
    4.7800   -0.7426   -5.2291 H   0  0  0  0  0  0  0  0  0  0  0  0
    3.8195   -0.9355   -6.7050 H   0  0  0  0  0  0  0  0  0  0  0  0
    3.6370    0.5168   -5.7072 H   0  0  0  0  0  0  0  0  0  0  0  0
    2.5792   -0.7243    0.8098 H   0  0  0  0  0  0  0  0  0  0  0  0
    3.5192   -2.0796    0.2472 H   0  0  0  0  0  0  0  0  0  0  0  0
    6.8358   -0.2448    0.1066 H   0  0  0  0  0  0  0  0  0  0  0  0
    6.0224   -1.7203   -0.4065 H   0  0  0  0  0  0  0  0  0  0  0  0
    5.7605   -0.1965   -1.2871 H   0  0  0  0  0  0  0  0  0  0  0  0
    4.2240   -0.7507    2.7352 H   0  0  0  0  0  0  0  0  0  0  0  0
    5.2152   -1.9883    1.9596 H   0  0  0  0  0  0  0  0  0  0  0  0
    5.9484   -0.4559    2.4456 H   0  0  0  0  0  0  0  0  0  0  0  0
    5.6036    1.6707    0.8172 H   0  0  0  0  0  0  0  0  0  0  0  0
    4.1814    1.6549   -0.1699 H   0  0  0  0  0  0  0  0  0  0  0  0
    3.0981    3.8426    3.4430 H   0  0  0  0  0  0  0  0  0  0  0  0
    1.8938    1.6398    3.3254 H   0  0  0  0  0  0  0  0  0  0  0  0
    0.2127    2.2216    2.8247 H   0  0  0  0  0  0  0  0  0  0  0  0
   -2.5351    3.0973    3.3986 H   0  0  0  0  0  0  0  0  0  0  0  0
   -4.0870    1.6705    2.6914 H   0  0  0  0  0  0  0  0  0  0  0  0
   -3.6650   -0.7465    4.5211 H   0  0  0  0  0  0  0  0  0  0  0  0
   -6.0518   -0.4203    5.0780 H   0  0  0  0  0  0  0  0  0  0  0  0
   -6.1647    0.9491    3.9608 H   0  0  0  0  0  0  0  0  0  0  0  0
   -5.9074   -0.6875    3.3406 H   0  0  0  0  0  0  0  0  0  0  0  0
   -4.3605    0.8081    6.3479 H   0  0  0  0  0  0  0  0  0  0  0  0
   -2.7951    1.2230    5.6615 H   0  0  0  0  0  0  0  0  0  0  0  0
   -4.2310    2.1722    5.2245 H   0  0  0  0  0  0  0  0  0  0  0  0
   -1.4964    0.1132   -0.8853 H   0  0  0  0  0  0  0  0  0  0  0  0
   -1.7812   -1.4648   -0.1707 H   0  0  0  0  0  0  0  0  0  0  0  0
   -0.7897   -1.6154   -2.4282 H   0  0  0  0  0  0  0  0  0  0  0  0
   -2.3470   -2.4452   -2.3456 H   0  0  0  0  0  0  0  0  0  0  0  0
   -0.4995    3.8162   -7.2267 H   0  0  0  0  0  0  0  0  0  0  0  0
    0.0687    2.1336   -7.1018 H   0  0  0  0  0  0  0  0  0  0  0  0
    0.3696    3.1022   -8.5522 H   0  0  0  0  0  0  0  0  0  0  0  0
   -1.0276    0.3915   -8.7298 H   0  0  0  0  0  0  0  0  0  0  0  0
   -2.2077    1.0406   -9.8953 H   0  0  0  0  0  0  0  0  0  0  0  0
   -0.5448    1.5473   -9.9803 H   0  0  0  0  0  0  0  0  0  0  0  0
   -2.2300    3.7355   -5.9240 H   0  0  0  0  0  0  0  0  0  0  0  0
   -3.2190    4.3122   -7.2827 H   0  0  0  0  0  0  0  0  0  0  0  0
   -3.9332    3.3374   -5.9913 H   0  0  0  0  0  0  0  0  0  0  0  0
   -4.8796    1.7476   -7.4554 H   0  0  0  0  0  0  0  0  0  0  0  0
   -4.2799    2.5312   -8.9223 H   0  0  0  0  0  0  0  0  0  0  0  0
   -3.9719    0.8071   -8.6217 H   0  0  0  0  0  0  0  0  0  0  0  0
   -4.0959    0.3527   -4.1330 H   0  0  0  0  0  0  0  0  0  0  0  0
   -4.3798   -1.2119   -3.3851 H   0  0  0  0  0  0  0  0  0  0  0  0
   -5.1614    0.5845   -1.9070 H   0  0  0  0  0  0  0  0  0  0  0  0
   -3.5985    1.3967   -2.0100 H   0  0  0  0  0  0  0  0  0  0  0  0
   -4.1077   -2.0044    2.7164 H   0  0  0  0  0  0  0  0  0  0  0  0
   -3.5389   -2.1996    1.0750 H   0  0  0  0  0  0  0  0  0  0  0  0
   -2.3900   -1.7360    2.3291 H   0  0  0  0  0  0  0  0  0  0  0  0
   -0.9381    5.0180    3.3335 H   0  0  0  0  0  0  0  0  0  0  0  0
    0.7686    4.6959    3.0438 H   0  0  0  0  0  0  0  0  0  0  0  0
   -0.0848    5.4637    0.9848 H   0  0  0  0  0  0  0  0  0  0  0  0
    1.3469    3.4673    0.7455 H   0  0  0  0  0  0  0  0  0  0  0  0
   -0.1008    2.4051    0.8602 H   0  0  0  0  0  0  0  0  0  0  0  0
   -1.5967    3.7093   -2.2909 H   0  0  0  0  0  0  0  0  0  0  0  0
   -1.8667    2.5409   -0.9779 H   0  0  0  0  0  0  0  0  0  0  0  0
   -1.7275    5.5984   -0.7060 H   0  0  0  0  0  0  0  0  0  0  0  0
   -3.1700    4.5828   -0.5702 H   0  0  0  0  0  0  0  0  0  0  0  0
    1.2532    3.2871    7.0994 H   0  0  0  0  0  0  0  0  0  0  0  0
    2.2518    1.8484    6.8363 H   0  0  0  0  0  0  0  0  0  0  0  0
    2.8918    4.7374    6.0156 H   0  0  0  0  0  0  0  0  0  0  0  0
    3.7251    3.8022    7.2596 H   0  0  0  0  0  0  0  0  0  0  0  0
    4.6616    2.2887    5.5943 H   0  0  0  0  0  0  0  0  0  0  0  0
    4.9729    3.9365    5.0644 H   0  0  0  0  0  0  0  0  0  0  0  0
    1.1027    1.2178   -4.8525 H   0  0  0  0  0  0  0  0  0  0  0  0
    0.0511    3.0468   -3.5990 H   0  0  0  0  0  0  0  0  0  0  0  0
    1.6477    1.4175    0.0636 H   0  0  0  0  0  0  0  0  0  0  0  0
  1  2  1  0
  2  3  1  0
  2  5  1  0
  3  4  1  0
  5  6  2  0
  5 10  1  0
  6  7  1  0
  7  8  2  0
  8  9  1  0
  9 10  2  0
 10 11  1  0
 11 12  1  0
 11 15  2  0
 12 13  1  0
 12 68  1  0
 13 14  1  0
 15 16  1  0
 15 67  1  0
 16 17  1  0
 17 18  1  0
 17 19  1  0
 17 20  1  0
 20 21  1  0
 21 22  1  0
 22 23  1  0
 22 66  2  0
 23 24  1  0
 23 65  1  0
 24 25  1  0
 25 26  1  0
 25 63  1  0
 26 27  1  0
 26 62  2  0
 27 28  1  0
 27 55  1  0
 28 29  1  0
 29 30  1  0
 29 54  2  0
 30 31  1  0
 30 34  1  0
 31 32  1  0
 31 33  1  0
 34 35  1  0
 34 53  1  0
 35 36  1  0
 35 52  2  0
 36 37  1  0
 36 51  1  0
 36 73  1  0
 37 38  1  0
 38 39  1  0
 39 40  1  0
 39 50  1  0
 40 41  1  0
 40 49  2  0
 42 43  1  0
 43 44  1  0
 43 47  1  0
 43 48  1  0
 44 45  1  0
 44 46  1  0
 50 51  1  0
 55 56  1  0
 56 57  1  0
 56 61  1  0
 57 58  1  0
 58 59  1  0
 58 71  1  0
 59 60  1  0
 60 61  1  0
 63 64  1  0
 64 65  1  0
 67 68  2  0
 67 72  1  0
 68 69  1  0
 69 70  2  0
 70 71  1  0
 71 72  2  0
 41 42  3  0
  1 74  1  0
  1 75  1  0
  1 76  1  0
  2 77  1  1
  4 78  1  0
  4 79  1  0
  4 80  1  0
  7 81  1  0
  8 82  1  0
  9 83  1  0
 13 84  1  0
 13 85  1  0
 14 86  1  0
 14 87  1  0
 14 88  1  0
 16 89  1  0
 16 90  1  0
 18 91  1  0
 18 92  1  0
 18 93  1  0
 19 94  1  0
 19 95  1  0
 19 96  1  0
 20 97  1  0
 20 98  1  0
 23 99  1  6
 24100  1  0
 27101  1  6
 28102  1  0
 30103  1  6
 31104  1  0
 32105  1  0
 32106  1  0
 32107  1  0
 33108  1  0
 33109  1  0
 33110  1  0
 37111  1  0
 37112  1  0
 38113  1  0
 38114  1  0
 45115  1  0
 45116  1  0
 45117  1  0
 46118  1  0
 46119  1  0
 46120  1  0
 47121  1  0
 47122  1  0
 47123  1  0
 48124  1  0
 48125  1  0
 48126  1  0
 50127  1  0
 50128  1  0
 51129  1  0
 51130  1  0
 53131  1  0
 53132  1  0
 53133  1  0
 55134  1  0
 55135  1  0
 56136  1  6
 57137  1  0
 57138  1  0
 59139  1  0
 59140  1  0
 60141  1  0
 60142  1  0
 63143  1  0
 63144  1  0
 64145  1  0
 64146  1  0
 65147  1  0
 65148  1  0
 69149  1  0
 70150  1  0
 72151  1  0
M  END
$$$$
