mol_bioactive_44
     RDKit          3D

151157  0  0  0  0  0  0  0  0999 V2000
   -3.3170    0.5100   -3.7877 C   0  0  0  0  0  0  0  0  0  0  0  0
   -1.8790    0.4036   -4.2928 C   0  0  2  0  0  0  0  0  0  0  0  0
   -1.5958    1.6459   -4.9685 O   0  0  0  0  0  0  0  0  0  0  0  0
   -0.2309    1.7763   -5.3390 C   0  0  0  0  0  0  0  0  0  0  0  0
   -1.7287   -0.8229   -5.1931 C   0  0  0  0  0  0  0  0  0  0  0  0
   -2.3758   -0.7740   -6.3953 N   0  0  0  0  0  0  0  0  0  0  0  0
   -2.2469   -1.8239   -7.2320 C   0  0  0  0  0  0  0  0  0  0  0  0
   -1.4989   -2.9474   -6.9404 C   0  0  0  0  0  0  0  0  0  0  0  0
   -0.8468   -3.0000   -5.7141 C   0  0  0  0  0  0  0  0  0  0  0  0
   -0.9580   -1.9363   -4.8114 C   0  0  0  0  0  0  0  0  0  0  0  0
   -0.2514   -2.0141   -3.5290 C   0  0  0  0  0  0  0  0  0  0  0  0
    1.0771   -1.6462   -3.3720 N   0  0  0  0  0  0  0  0  0  0  0  0
    1.9870   -1.2513   -4.4392 C   0  0  0  0  0  0  0  0  0  0  0  0
    2.8899   -2.3936   -4.8751 C   0  0  0  0  0  0  0  0  0  0  0  0
   -0.7359   -2.3815   -2.2736 C   0  0  0  0  0  0  0  0  0  0  0  0
   -2.1214   -2.8786   -1.9169 C   0  0  0  0  0  0  0  0  0  0  0  0
   -2.3192   -4.4196   -1.7911 C   0  0  0  0  0  0  0  0  0  0  0  0
   -3.8342   -4.6780   -1.6276 C   0  0  0  0  0  0  0  0  0  0  0  0
   -1.8651   -5.1373   -3.0765 C   0  0  0  0  0  0  0  0  0  0  0  0
   -1.5510   -5.0444   -0.5959 C   0  0  0  0  0  0  0  0  0  0  0  0
   -2.1099   -4.7114    0.6960 O   0  0  0  0  0  0  0  0  0  0  0  0
   -2.7662   -5.7350    1.3353 C   0  0  0  0  0  0  0  0  0  0  0  0
   -3.1064   -5.3729    2.7909 C   0  0  1  0  0  0  0  0  0  0  0  0
   -3.6811   -4.0181    2.8854 N   0  0  0  0  0  0  0  0  0  0  0  0
   -3.9817   -3.6815    4.2376 N   0  0  0  0  0  0  0  0  0  0  0  0
   -3.4856   -2.5693    4.9359 C   0  0  0  0  0  0  0  0  0  0  0  0
   -2.2286   -1.8785    4.3729 C   0  0  1  0  0  0  0  0  0  0  0  0
   -2.2537   -0.4454    4.6202 N   0  0  0  0  0  0  0  0  0  0  0  0
   -2.7685    0.4317    3.6884 C   0  0  0  0  0  0  0  0  0  0  0  0
   -2.6848    1.9311    4.0811 C   0  0  2  0  0  0  0  0  0  0  0  0
   -3.9866    2.4241    4.7663 C   0  0  0  0  0  0  0  0  0  0  0  0
   -3.8405    3.8797    5.2307 C   0  0  0  0  0  0  0  0  0  0  0  0
   -4.3710    1.5698    5.9811 C   0  0  0  0  0  0  0  0  0  0  0  0
   -2.2794    2.7069    2.8703 N   0  0  0  0  0  0  0  0  0  0  0  0
   -0.9048    2.7816    2.6173 C   0  0  0  0  0  0  0  0  0  0  0  0
   -0.3823    3.3881    1.2880 C   0  0  0  0  0  0  0  0  0  0  0  0
   -0.6015    2.4234    0.1095 C   0  0  0  0  0  0  0  0  0  0  0  0
    0.0219    2.9769   -1.1718 C   0  0  0  0  0  0  0  0  0  0  0  0
    1.4262    3.2798   -0.9454 N   0  0  0  0  0  0  0  0  0  0  0  0
    2.4012    2.5404   -1.6004 C   0  0  0  0  0  0  0  0  0  0  0  0
    3.7515    2.5801   -1.0848 C   0  0  0  0  0  0  0  0  0  0  0  0
    4.8539    2.5508   -0.6030 C   0  0  0  0  0  0  0  0  0  0  0  0
    6.1855    2.4721    0.0516 C   0  0  0  0  0  0  0  0  0  0  0  0
    6.3357    3.6467    0.9516 N   0  0  0  0  0  0  0  0  0  0  0  0
    6.4376    4.9277    0.2426 C   0  0  0  0  0  0  0  0  0  0  0  0
    7.4353    3.5444    1.9130 C   0  0  0  0  0  0  0  0  0  0  0  0
    7.2715    2.3748   -1.0404 C   0  0  0  0  0  0  0  0  0  0  0  0
    6.1859    1.1424    0.8480 C   0  0  0  0  0  0  0  0  0  0  0  0
    2.1867    1.8208   -2.5678 O   0  0  0  0  0  0  0  0  0  0  0  0
    1.6873    4.2360    0.1243 C   0  0  0  0  0  0  0  0  0  0  0  0
    1.1161    3.7198    1.4344 C   0  0  0  0  0  0  0  0  0  0  0  0
   -0.0960    2.3385    3.4434 O   0  0  0  0  0  0  0  0  0  0  0  0
   -3.3084    3.0348    1.8835 C   0  0  0  0  0  0  0  0  0  0  0  0
   -3.2557    0.0353    2.6294 O   0  0  0  0  0  0  0  0  0  0  0  0
   -0.9802   -2.5455    4.9864 C   0  0  0  0  0  0  0  0  0  0  0  0
    0.3634   -2.1037    4.3741 C   0  0  1  0  0  0  0  0  0  0  0  0
    0.3118   -2.1495    2.8405 C   0  0  0  0  0  0  0  0  0  0  0  0
    1.5614   -1.6842    2.2095 N   0  0  0  0  0  0  0  0  0  0  0  0
    1.9528   -0.3499    2.7449 C   0  0  0  0  0  0  0  0  0  0  0  0
    1.9391   -0.3507    4.2860 C   0  0  0  0  0  0  0  0  0  0  0  0
    0.6793   -0.7803    4.8344 O   0  0  0  0  0  0  0  0  0  0  0  0
   -3.9539   -2.2128    6.0234 O   0  0  0  0  0  0  0  0  0  0  0  0
   -5.0284   -4.5177    4.8299 C   0  0  0  0  0  0  0  0  0  0  0  0
   -4.5871   -5.9797    4.7766 C   0  0  0  0  0  0  0  0  0  0  0  0
   -4.1296   -6.3718    3.3672 C   0  0  0  0  0  0  0  0  0  0  0  0
   -2.9841   -6.8342    0.8400 O   0  0  0  0  0  0  0  0  0  0  0  0
    0.3007   -2.0719   -1.3364 C   0  0  0  0  0  0  0  0  0  0  0  0
    1.4196   -1.6425   -2.0351 C   0  0  0  0  0  0  0  0  0  0  0  0
    2.6063   -1.2880   -1.3749 C   0  0  0  0  0  0  0  0  0  0  0  0
    2.6293   -1.3299    0.0289 C   0  0  0  0  0  0  0  0  0  0  0  0
    1.5136   -1.7008    0.7851 C   0  0  0  0  0  0  0  0  0  0  0  0
    0.3666   -2.1007    0.0708 C   0  0  0  0  0  0  0  0  0  0  0  0
   -1.0113    4.5735    1.0012 F   0  0  0  0  0  0  0  0  0  0  0  0
   -3.6308   -0.3922   -3.2564 H   0  0  0  0  0  0  0  0  0  0  0  0
   -3.4160    1.3640   -3.1080 H   0  0  0  0  0  0  0  0  0  0  0  0
   -4.0169    0.6865   -4.6129 H   0  0  0  0  0  0  0  0  0  0  0  0
   -1.2209    0.3529   -3.4199 H   0  0  0  0  0  0  0  0  0  0  0  0
    0.4246    1.5994   -4.4840 H   0  0  0  0  0  0  0  0  0  0  0  0
    0.0188    1.0906   -6.1533 H   0  0  0  0  0  0  0  0  0  0  0  0
   -0.0689    2.7977   -5.6923 H   0  0  0  0  0  0  0  0  0  0  0  0
   -2.7799   -1.7313   -8.1736 H   0  0  0  0  0  0  0  0  0  0  0  0
   -1.4261   -3.7646   -7.6493 H   0  0  0  0  0  0  0  0  0  0  0  0
   -0.2526   -3.8743   -5.4619 H   0  0  0  0  0  0  0  0  0  0  0  0
    1.4027   -0.8873   -5.2889 H   0  0  0  0  0  0  0  0  0  0  0  0
    2.5815   -0.4041   -4.0829 H   0  0  0  0  0  0  0  0  0  0  0  0
    3.5205   -2.7393   -4.0498 H   0  0  0  0  0  0  0  0  0  0  0  0
    2.3054   -3.2497   -5.2278 H   0  0  0  0  0  0  0  0  0  0  0  0
    3.5451   -2.0690   -5.6894 H   0  0  0  0  0  0  0  0  0  0  0  0
   -2.4348   -2.3976   -0.9806 H   0  0  0  0  0  0  0  0  0  0  0  0
   -2.8168   -2.5025   -2.6775 H   0  0  0  0  0  0  0  0  0  0  0  0
   -4.2407   -4.1564   -0.7538 H   0  0  0  0  0  0  0  0  0  0  0  0
   -4.3912   -4.3289   -2.5048 H   0  0  0  0  0  0  0  0  0  0  0  0
   -4.0442   -5.7473   -1.5122 H   0  0  0  0  0  0  0  0  0  0  0  0
   -2.0955   -6.2084   -3.0316 H   0  0  0  0  0  0  0  0  0  0  0  0
   -2.3792   -4.7356   -3.9551 H   0  0  0  0  0  0  0  0  0  0  0  0
   -0.7849   -5.0472   -3.2301 H   0  0  0  0  0  0  0  0  0  0  0  0
   -1.4868   -6.1327   -0.7204 H   0  0  0  0  0  0  0  0  0  0  0  0
   -0.5098   -4.7116   -0.5883 H   0  0  0  0  0  0  0  0  0  0  0  0
   -2.1694   -5.4275    3.3594 H   0  0  0  0  0  0  0  0  0  0  0  0
   -3.1246   -3.3314    2.3799 H   0  0  0  0  0  0  0  0  0  0  0  0
   -2.2306   -2.0077    3.2963 H   0  0  0  0  0  0  0  0  0  0  0  0
   -1.8934   -0.1018    5.5026 H   0  0  0  0  0  0  0  0  0  0  0  0
   -1.8795    2.0231    4.8220 H   0  0  0  0  0  0  0  0  0  0  0  0
   -4.8236    2.3633    4.0615 H   0  0  0  0  0  0  0  0  0  0  0  0
   -3.0823    3.9697    6.0181 H   0  0  0  0  0  0  0  0  0  0  0  0
   -3.5521    4.5466    4.4125 H   0  0  0  0  0  0  0  0  0  0  0  0
   -4.7888    4.2516    5.6346 H   0  0  0  0  0  0  0  0  0  0  0  0
   -3.5516    1.5145    6.7070 H   0  0  0  0  0  0  0  0  0  0  0  0
   -5.2449    1.9909    6.4907 H   0  0  0  0  0  0  0  0  0  0  0  0
   -4.6382    0.5520    5.6822 H   0  0  0  0  0  0  0  0  0  0  0  0
   -0.1562    1.4484    0.3457 H   0  0  0  0  0  0  0  0  0  0  0  0
   -1.6645    2.2491   -0.0755 H   0  0  0  0  0  0  0  0  0  0  0  0
   -0.1000    2.2516   -1.9825 H   0  0  0  0  0  0  0  0  0  0  0  0
   -0.4775    3.9033   -1.4786 H   0  0  0  0  0  0  0  0  0  0  0  0
    6.3674    5.7585    0.9556 H   0  0  0  0  0  0  0  0  0  0  0  0
    7.3861    5.0343   -0.2964 H   0  0  0  0  0  0  0  0  0  0  0  0
    5.6164    5.0738   -0.4672 H   0  0  0  0  0  0  0  0  0  0  0  0
    7.2908    2.7079    2.6034 H   0  0  0  0  0  0  0  0  0  0  0  0
    8.4109    3.4393    1.4273 H   0  0  0  0  0  0  0  0  0  0  0  0
    7.4727    4.4367    2.5491 H   0  0  0  0  0  0  0  0  0  0  0  0
    8.2769    2.3218   -0.6099 H   0  0  0  0  0  0  0  0  0  0  0  0
    7.1323    1.4742   -1.6507 H   0  0  0  0  0  0  0  0  0  0  0  0
    7.2406    3.2238   -1.7324 H   0  0  0  0  0  0  0  0  0  0  0  0
    5.4505    1.1632    1.6620 H   0  0  0  0  0  0  0  0  0  0  0  0
    5.9204    0.2953    0.2028 H   0  0  0  0  0  0  0  0  0  0  0  0
    7.1688    0.9170    1.2763 H   0  0  0  0  0  0  0  0  0  0  0  0
    2.7545    4.4445    0.2314 H   0  0  0  0  0  0  0  0  0  0  0  0
    1.2078    5.1806   -0.1577 H   0  0  0  0  0  0  0  0  0  0  0  0
    1.2542    4.4824    2.2103 H   0  0  0  0  0  0  0  0  0  0  0  0
    1.6788    2.8300    1.7442 H   0  0  0  0  0  0  0  0  0  0  0  0
   -4.1473    3.5410    2.3639 H   0  0  0  0  0  0  0  0  0  0  0  0
   -2.9464    3.7041    1.1069 H   0  0  0  0  0  0  0  0  0  0  0  0
   -3.6623    2.1187    1.4063 H   0  0  0  0  0  0  0  0  0  0  0  0
   -0.9601   -2.3472    6.0663 H   0  0  0  0  0  0  0  0  0  0  0  0
   -1.0661   -3.6337    4.8687 H   0  0  0  0  0  0  0  0  0  0  0  0
    1.1470   -2.7788    4.7429 H   0  0  0  0  0  0  0  0  0  0  0  0
    0.0892   -3.1812    2.5393 H   0  0  0  0  0  0  0  0  0  0  0  0
   -0.4799   -1.4749    2.5005 H   0  0  0  0  0  0  0  0  0  0  0  0
    2.9575   -0.0653    2.4158 H   0  0  0  0  0  0  0  0  0  0  0  0
    1.2433    0.4005    2.3785 H   0  0  0  0  0  0  0  0  0  0  0  0
    2.7306   -1.0005    4.6783 H   0  0  0  0  0  0  0  0  0  0  0  0
    2.1279    0.6621    4.6545 H   0  0  0  0  0  0  0  0  0  0  0  0
   -5.2282   -4.2279    5.8660 H   0  0  0  0  0  0  0  0  0  0  0  0
   -5.9493   -4.3629    4.2557 H   0  0  0  0  0  0  0  0  0  0  0  0
   -3.7503   -6.1283    5.4713 H   0  0  0  0  0  0  0  0  0  0  0  0
   -5.4017   -6.6331    5.1055 H   0  0  0  0  0  0  0  0  0  0  0  0
   -5.0077   -6.4298    2.7095 H   0  0  0  0  0  0  0  0  0  0  0  0
   -3.6962   -7.3788    3.3959 H   0  0  0  0  0  0  0  0  0  0  0  0
    3.4842   -0.9598   -1.9223 H   0  0  0  0  0  0  0  0  0  0  0  0
    3.5576   -1.0627    0.5260 H   0  0  0  0  0  0  0  0  0  0  0  0
   -0.5396   -2.4125    0.5725 H   0  0  0  0  0  0  0  0  0  0  0  0
  1  2  1  0
  2  3  1  0
  2  5  1  0
  3  4  1  0
  5  6  2  0
  5 10  1  0
  6  7  1  0
  7  8  2  0
  8  9  1  0
  9 10  2  0
 10 11  1  0
 11 12  1  0
 11 15  2  0
 12 13  1  0
 12 68  1  0
 13 14  1  0
 15 16  1  0
 15 67  1  0
 16 17  1  0
 17 18  1  0
 17 19  1  0
 17 20  1  0
 20 21  1  0
 21 22  1  0
 22 23  1  0
 22 66  2  0
 23 24  1  0
 23 65  1  0
 24 25  1  0
 25 26  1  0
 25 63  1  0
 26 27  1  0
 26 62  2  0
 27 28  1  0
 27 55  1  0
 28 29  1  0
 29 30  1  0
 29 54  2  0
 30 31  1  0
 30 34  1  0
 31 32  1  0
 31 33  1  0
 34 35  1  0
 34 53  1  0
 35 36  1  0
 35 52  2  0
 36 37  1  0
 36 51  1  0
 36 73  1  0
 37 38  1  0
 38 39  1  0
 39 40  1  0
 39 50  1  0
 40 41  1  0
 40 49  2  0
 42 43  1  0
 43 44  1  0
 43 47  1  0
 43 48  1  0
 44 45  1  0
 44 46  1  0
 50 51  1  0
 55 56  1  0
 56 57  1  0
 56 61  1  0
 57 58  1  0
 58 59  1  0
 58 71  1  0
 59 60  1  0
 60 61  1  0
 63 64  1  0
 64 65  1  0
 67 68  2  0
 67 72  1  0
 68 69  1  0
 69 70  2  0
 70 71  1  0
 71 72  2  0
 41 42  3  0
  1 74  1  0
  1 75  1  0
  1 76  1  0
  2 77  1  1
  4 78  1  0
  4 79  1  0
  4 80  1  0
  7 81  1  0
  8 82  1  0
  9 83  1  0
 13 84  1  0
 13 85  1  0
 14 86  1  0
 14 87  1  0
 14 88  1  0
 16 89  1  0
 16 90  1  0
 18 91  1  0
 18 92  1  0
 18 93  1  0
 19 94  1  0
 19 95  1  0
 19 96  1  0
 20 97  1  0
 20 98  1  0
 23 99  1  1
 24100  1  0
 27101  1  6
 28102  1  0
 30103  1  1
 31104  1  0
 32105  1  0
 32106  1  0
 32107  1  0
 33108  1  0
 33109  1  0
 33110  1  0
 37111  1  0
 37112  1  0
 38113  1  0
 38114  1  0
 45115  1  0
 45116  1  0
 45117  1  0
 46118  1  0
 46119  1  0
 46120  1  0
 47121  1  0
 47122  1  0
 47123  1  0
 48124  1  0
 48125  1  0
 48126  1  0
 50127  1  0
 50128  1  0
 51129  1  0
 51130  1  0
 53131  1  0
 53132  1  0
 53133  1  0
 55134  1  0
 55135  1  0
 56136  1  1
 57137  1  0
 57138  1  0
 59139  1  0
 59140  1  0
 60141  1  0
 60142  1  0
 63143  1  0
 63144  1  0
 64145  1  0
 64146  1  0
 65147  1  0
 65148  1  0
 69149  1  0
 70150  1  0
 72151  1  0
M  END
$$$$
