mol_bioactive_1
     RDKit          3D

151157  0  0  0  0  0  0  0  0999 V2000
    1.5608   -5.5258    4.4083 C   0  0  0  0  0  0  0  0  0  0  0  0
    0.2379   -6.2462    4.1526 C   0  0  2  0  0  0  0  0  0  0  0  0
   -0.3226   -5.8710    2.8887 O   0  0  0  0  0  0  0  0  0  0  0  0
    0.2476   -6.5617    1.7873 C   0  0  0  0  0  0  0  0  0  0  0  0
   -0.7720   -6.0509    5.2801 C   0  0  0  0  0  0  0  0  0  0  0  0
   -1.0315   -7.1922    5.9926 N   0  0  0  0  0  0  0  0  0  0  0  0
   -1.9075   -7.1273    7.0165 C   0  0  0  0  0  0  0  0  0  0  0  0
   -2.5472   -5.9679    7.4007 C   0  0  0  0  0  0  0  0  0  0  0  0
   -2.2717   -4.8066    6.6905 C   0  0  0  0  0  0  0  0  0  0  0  0
   -1.3777   -4.8243    5.6097 C   0  0  0  0  0  0  0  0  0  0  0  0
   -1.1193   -3.5604    4.9106 C   0  0  0  0  0  0  0  0  0  0  0  0
   -0.2400   -2.5896    5.3781 N   0  0  0  0  0  0  0  0  0  0  0  0
    0.4916   -2.6360    6.6368 C   0  0  0  0  0  0  0  0  0  0  0  0
   -0.1760   -1.8064    7.7215 C   0  0  0  0  0  0  0  0  0  0  0  0
   -1.6560   -3.0882    3.7157 C   0  0  0  0  0  0  0  0  0  0  0  0
   -2.6816   -3.7309    2.8112 C   0  0  0  0  0  0  0  0  0  0  0  0
   -4.1659   -3.2849    2.9813 C   0  0  0  0  0  0  0  0  0  0  0  0
   -4.7571   -3.9360    4.2473 C   0  0  0  0  0  0  0  0  0  0  0  0
   -4.3358   -1.7593    3.1061 C   0  0  0  0  0  0  0  0  0  0  0  0
   -4.9707   -3.8089    1.7547 C   0  0  0  0  0  0  0  0  0  0  0  0
   -4.8079   -2.9731    0.5841 O   0  0  0  0  0  0  0  0  0  0  0  0
   -5.9311   -2.3111    0.1695 C   0  0  0  0  0  0  0  0  0  0  0  0
   -5.7113   -1.4980   -1.1181 C   0  0  1  0  0  0  0  0  0  0  0  0
   -4.6265   -2.0525   -1.9515 N   0  0  0  0  0  0  0  0  0  0  0  0
   -4.4561   -1.2915   -3.1459 N   0  0  0  0  0  0  0  0  0  0  0  0
   -3.2178   -0.8639   -3.6430 C   0  0  0  0  0  0  0  0  0  0  0  0
   -2.1102   -0.5440   -2.6169 C   0  0  1  0  0  0  0  0  0  0  0  0
   -0.8142   -0.9063   -3.1670 N   0  0  0  0  0  0  0  0  0  0  0  0
   -0.2928   -2.1725   -3.0170 C   0  0  0  0  0  0  0  0  0  0  0  0
    1.0383   -2.4161   -3.7699 C   0  0  2  0  0  0  0  0  0  0  0  0
    0.8238   -3.3881   -4.9629 C   0  0  0  0  0  0  0  0  0  0  0  0
    2.1480   -3.7116   -5.6649 C   0  0  0  0  0  0  0  0  0  0  0  0
   -0.1533   -2.8028   -5.9913 C   0  0  0  0  0  0  0  0  0  0  0  0
    2.0915   -2.8561   -2.8197 N   0  0  0  0  0  0  0  0  0  0  0  0
    2.8432   -1.8456   -2.2038 C   0  0  0  0  0  0  0  0  0  0  0  0
    4.0563   -2.2495   -1.3312 C   0  0  0  0  0  0  0  0  0  0  0  0
    4.4742   -1.0817   -0.4232 C   0  0  0  0  0  0  0  0  0  0  0  0
    5.7864   -1.3915    0.2849 C   0  0  0  0  0  0  0  0  0  0  0  0
    6.8015   -1.7211   -0.7020 N   0  0  0  0  0  0  0  0  0  0  0  0
    7.7424   -0.7566   -1.0459 C   0  0  0  0  0  0  0  0  0  0  0  0
    8.6477   -1.0242   -2.1427 C   0  0  0  0  0  0  0  0  0  0  0  0
    9.4137   -1.2271   -3.0481 C   0  0  0  0  0  0  0  0  0  0  0  0
   10.3724   -1.4640   -4.1606 C   0  0  0  0  0  0  0  0  0  0  0  0
   10.1155   -2.8156   -4.7301 N   0  0  0  0  0  0  0  0  0  0  0  0
   10.4117   -3.9165   -3.8063 C   0  0  0  0  0  0  0  0  0  0  0  0
   10.7801   -3.0735   -6.0098 C   0  0  0  0  0  0  0  0  0  0  0  0
   10.1117   -0.3514   -5.2048 C   0  0  0  0  0  0  0  0  0  0  0  0
   11.8060   -1.2777   -3.6156 C   0  0  0  0  0  0  0  0  0  0  0  0
    7.8513    0.3209   -0.4715 O   0  0  0  0  0  0  0  0  0  0  0  0
    6.4976   -2.8964   -1.5087 C   0  0  0  0  0  0  0  0  0  0  0  0
    5.1972   -2.6748   -2.2744 C   0  0  0  0  0  0  0  0  0  0  0  0
    2.6246   -0.6547   -2.4486 O   0  0  0  0  0  0  0  0  0  0  0  0
    1.9354   -4.1540   -2.1684 C   0  0  0  0  0  0  0  0  0  0  0  0
   -0.8524   -3.0360   -2.3437 O   0  0  0  0  0  0  0  0  0  0  0  0
   -2.1911    0.9606   -2.2770 C   0  0  0  0  0  0  0  0  0  0  0  0
   -1.1862    1.4552   -1.2192 C   0  0  1  0  0  0  0  0  0  0  0  0
   -1.1661    0.5268    0.0018 C   0  0  0  0  0  0  0  0  0  0  0  0
   -0.1728    0.9377    1.0153 N   0  0  0  0  0  0  0  0  0  0  0  0
    1.1672    1.1194    0.3929 C   0  0  0  0  0  0  0  0  0  0  0  0
    1.0718    2.0266   -0.8497 C   0  0  0  0  0  0  0  0  0  0  0  0
    0.1177    1.5477   -1.8144 O   0  0  0  0  0  0  0  0  0  0  0  0
   -3.0418   -0.6164   -4.8416 O   0  0  0  0  0  0  0  0  0  0  0  0
   -5.6114   -1.3569   -4.0435 C   0  0  0  0  0  0  0  0  0  0  0  0
   -6.8435   -0.8317   -3.3097 C   0  0  0  0  0  0  0  0  0  0  0  0
   -7.0121   -1.5109   -1.9474 C   0  0  0  0  0  0  0  0  0  0  0  0
   -6.9965   -2.3087    0.7792 O   0  0  0  0  0  0  0  0  0  0  0  0
   -0.9467   -1.8886    3.3972 C   0  0  0  0  0  0  0  0  0  0  0  0
   -0.0829   -1.5871    4.4389 C   0  0  0  0  0  0  0  0  0  0  0  0
    0.7336   -0.4439    4.3985 C   0  0  0  0  0  0  0  0  0  0  0  0
    0.6815    0.3780    3.2543 C   0  0  0  0  0  0  0  0  0  0  0  0
   -0.1459    0.0949    2.1614 C   0  0  0  0  0  0  0  0  0  0  0  0
   -0.9687   -1.0393    2.2747 C   0  0  0  0  0  0  0  0  0  0  0  0
    3.7824   -3.3062   -0.5012 F   0  0  0  0  0  0  0  0  0  0  0  0
    1.9135   -5.6798    5.4334 H   0  0  0  0  0  0  0  0  0  0  0  0
    2.3354   -5.8961    3.7283 H   0  0  0  0  0  0  0  0  0  0  0  0
    1.4864   -4.4528    4.2160 H   0  0  0  0  0  0  0  0  0  0  0  0
    0.4553   -7.3237    4.1195 H   0  0  0  0  0  0  0  0  0  0  0  0
    0.0616   -7.6366    1.8708 H   0  0  0  0  0  0  0  0  0  0  0  0
   -0.2317   -6.1989    0.8737 H   0  0  0  0  0  0  0  0  0  0  0  0
    1.3209   -6.3665    1.7118 H   0  0  0  0  0  0  0  0  0  0  0  0
   -2.0855   -8.0650    7.5343 H   0  0  0  0  0  0  0  0  0  0  0  0
   -3.2457   -5.9652    8.2299 H   0  0  0  0  0  0  0  0  0  0  0  0
   -2.7662   -3.8816    6.9743 H   0  0  0  0  0  0  0  0  0  0  0  0
    0.5863   -3.6780    6.9560 H   0  0  0  0  0  0  0  0  0  0  0  0
    1.5090   -2.2765    6.4464 H   0  0  0  0  0  0  0  0  0  0  0  0
    0.4063   -1.8544    8.6466 H   0  0  0  0  0  0  0  0  0  0  0  0
   -0.2601   -0.7557    7.4253 H   0  0  0  0  0  0  0  0  0  0  0  0
   -1.1848   -2.1714    7.9365 H   0  0  0  0  0  0  0  0  0  0  0  0
   -2.3713   -3.5485    1.7737 H   0  0  0  0  0  0  0  0  0  0  0  0
   -2.6307   -4.8199    2.9296 H   0  0  0  0  0  0  0  0  0  0  0  0
   -4.2998   -3.5287    5.1521 H   0  0  0  0  0  0  0  0  0  0  0  0
   -5.8350   -3.7463    4.3241 H   0  0  0  0  0  0  0  0  0  0  0  0
   -4.6129   -5.0221    4.2434 H   0  0  0  0  0  0  0  0  0  0  0  0
   -3.8619   -1.3709    4.0150 H   0  0  0  0  0  0  0  0  0  0  0  0
   -3.9096   -1.2270    2.2502 H   0  0  0  0  0  0  0  0  0  0  0  0
   -5.3966   -1.4897    3.1628 H   0  0  0  0  0  0  0  0  0  0  0  0
   -4.6222   -4.8109    1.4743 H   0  0  0  0  0  0  0  0  0  0  0  0
   -6.0287   -3.9292    2.0152 H   0  0  0  0  0  0  0  0  0  0  0  0
   -5.4545   -0.4760   -0.8123 H   0  0  0  0  0  0  0  0  0  0  0  0
   -3.7748   -2.2181   -1.4150 H   0  0  0  0  0  0  0  0  0  0  0  0
   -2.2679   -1.1369   -1.7193 H   0  0  0  0  0  0  0  0  0  0  0  0
   -0.3318   -0.2241   -3.7429 H   0  0  0  0  0  0  0  0  0  0  0  0
    1.3624   -1.4606   -4.2024 H   0  0  0  0  0  0  0  0  0  0  0  0
    0.3857   -4.3292   -4.6086 H   0  0  0  0  0  0  0  0  0  0  0  0
    2.8361   -4.2419   -4.9989 H   0  0  0  0  0  0  0  0  0  0  0  0
    1.9802   -4.3535   -6.5359 H   0  0  0  0  0  0  0  0  0  0  0  0
    2.6457   -2.7994   -6.0089 H   0  0  0  0  0  0  0  0  0  0  0  0
   -1.1486   -2.6615   -5.5586 H   0  0  0  0  0  0  0  0  0  0  0  0
    0.1976   -1.8361   -6.3677 H   0  0  0  0  0  0  0  0  0  0  0  0
   -0.2669   -3.4779   -6.8469 H   0  0  0  0  0  0  0  0  0  0  0  0
    4.5907   -0.1597   -1.0057 H   0  0  0  0  0  0  0  0  0  0  0  0
    3.6990   -0.9016    0.3292 H   0  0  0  0  0  0  0  0  0  0  0  0
    6.0933   -0.5370    0.8964 H   0  0  0  0  0  0  0  0  0  0  0  0
    5.6752   -2.2510    0.9562 H   0  0  0  0  0  0  0  0  0  0  0  0
    9.8989   -3.8002   -2.8470 H   0  0  0  0  0  0  0  0  0  0  0  0
   10.0488   -4.8634   -4.2223 H   0  0  0  0  0  0  0  0  0  0  0  0
   11.4841   -4.0274   -3.6168 H   0  0  0  0  0  0  0  0  0  0  0  0
   11.8702   -2.9994   -5.9390 H   0  0  0  0  0  0  0  0  0  0  0  0
   10.5376   -4.0797   -6.3725 H   0  0  0  0  0  0  0  0  0  0  0  0
   10.4282   -2.3944   -6.7922 H   0  0  0  0  0  0  0  0  0  0  0  0
   10.1402    0.6434   -4.7417 H   0  0  0  0  0  0  0  0  0  0  0  0
   10.8638   -0.3496   -6.0013 H   0  0  0  0  0  0  0  0  0  0  0  0
    9.1221   -0.4586   -5.6666 H   0  0  0  0  0  0  0  0  0  0  0  0
   12.0262   -1.9584   -2.7846 H   0  0  0  0  0  0  0  0  0  0  0  0
   12.5614   -1.4325   -4.3926 H   0  0  0  0  0  0  0  0  0  0  0  0
   11.9459   -0.2616   -3.2260 H   0  0  0  0  0  0  0  0  0  0  0  0
    7.3059   -3.1286   -2.2055 H   0  0  0  0  0  0  0  0  0  0  0  0
    6.4010   -3.7512   -0.8290 H   0  0  0  0  0  0  0  0  0  0  0  0
    4.9364   -3.5989   -2.8017 H   0  0  0  0  0  0  0  0  0  0  0  0
    5.3529   -1.9017   -3.0380 H   0  0  0  0  0  0  0  0  0  0  0  0
    1.5048   -4.0062   -1.1732 H   0  0  0  0  0  0  0  0  0  0  0  0
    1.2948   -4.8213   -2.7457 H   0  0  0  0  0  0  0  0  0  0  0  0
    2.9104   -4.6383   -2.0736 H   0  0  0  0  0  0  0  0  0  0  0  0
   -2.0475    1.5439   -3.1961 H   0  0  0  0  0  0  0  0  0  0  0  0
   -3.2065    1.1803   -1.9190 H   0  0  0  0  0  0  0  0  0  0  0  0
   -1.4823    2.4667   -0.9142 H   0  0  0  0  0  0  0  0  0  0  0  0
   -2.1743    0.5166    0.4339 H   0  0  0  0  0  0  0  0  0  0  0  0
   -0.8874   -0.4791   -0.3297 H   0  0  0  0  0  0  0  0  0  0  0  0
    1.8767    1.5727    1.0930 H   0  0  0  0  0  0  0  0  0  0  0  0
    1.5541    0.1386    0.0886 H   0  0  0  0  0  0  0  0  0  0  0  0
    0.7982    3.0490   -0.5632 H   0  0  0  0  0  0  0  0  0  0  0  0
    2.0457    2.0720   -1.3460 H   0  0  0  0  0  0  0  0  0  0  0  0
   -5.4384   -0.7615   -4.9462 H   0  0  0  0  0  0  0  0  0  0  0  0
   -5.7451   -2.4011   -4.3504 H   0  0  0  0  0  0  0  0  0  0  0  0
   -6.7345    0.2493   -3.1524 H   0  0  0  0  0  0  0  0  0  0  0  0
   -7.7399   -0.9806   -3.9210 H   0  0  0  0  0  0  0  0  0  0  0  0
   -7.3421   -2.5469   -2.1051 H   0  0  0  0  0  0  0  0  0  0  0  0
   -7.8172   -1.0101   -1.3949 H   0  0  0  0  0  0  0  0  0  0  0  0
    1.3962   -0.1887    5.2185 H   0  0  0  0  0  0  0  0  0  0  0  0
    1.3025    1.2698    3.2435 H   0  0  0  0  0  0  0  0  0  0  0  0
   -1.6417   -1.3369    1.4822 H   0  0  0  0  0  0  0  0  0  0  0  0
  1  2  1  0
  2  3  1  0
  2  5  1  0
  3  4  1  0
  5  6  2  0
  5 10  1  0
  6  7  1  0
  7  8  2  0
  8  9  1  0
  9 10  2  0
 10 11  1  0
 11 12  1  0
 11 15  2  0
 12 13  1  0
 12 68  1  0
 13 14  1  0
 15 16  1  0
 15 67  1  0
 16 17  1  0
 17 18  1  0
 17 19  1  0
 17 20  1  0
 20 21  1  0
 21 22  1  0
 22 23  1  0
 22 66  2  0
 23 24  1  0
 23 65  1  0
 24 25  1  0
 25 26  1  0
 25 63  1  0
 26 27  1  0
 26 62  2  0
 27 28  1  0
 27 55  1  0
 28 29  1  0
 29 30  1  0
 29 54  2  0
 30 31  1  0
 30 34  1  0
 31 32  1  0
 31 33  1  0
 34 35  1  0
 34 53  1  0
 35 36  1  0
 35 52  2  0
 36 37  1  0
 36 51  1  0
 36 73  1  0
 37 38  1  0
 38 39  1  0
 39 40  1  0
 39 50  1  0
 40 41  1  0
 40 49  2  0
 42 43  1  0
 43 44  1  0
 43 47  1  0
 43 48  1  0
 44 45  1  0
 44 46  1  0
 50 51  1  0
 55 56  1  0
 56 57  1  0
 56 61  1  0
 57 58  1  0
 58 59  1  0
 58 71  1  0
 59 60  1  0
 60 61  1  0
 63 64  1  0
 64 65  1  0
 67 68  2  0
 67 72  1  0
 68 69  1  0
 69 70  2  0
 70 71  1  0
 71 72  2  0
 41 42  3  0
  1 74  1  0
  1 75  1  0
  1 76  1  0
  2 77  1  6
  4 78  1  0
  4 79  1  0
  4 80  1  0
  7 81  1  0
  8 82  1  0
  9 83  1  0
 13 84  1  0
 13 85  1  0
 14 86  1  0
 14 87  1  0
 14 88  1  0
 16 89  1  0
 16 90  1  0
 18 91  1  0
 18 92  1  0
 18 93  1  0
 19 94  1  0
 19 95  1  0
 19 96  1  0
 20 97  1  0
 20 98  1  0
 23 99  1  1
 24100  1  0
 27101  1  1
 28102  1  0
 30103  1  6
 31104  1  0
 32105  1  0
 32106  1  0
 32107  1  0
 33108  1  0
 33109  1  0
 33110  1  0
 37111  1  0
 37112  1  0
 38113  1  0
 38114  1  0
 45115  1  0
 45116  1  0
 45117  1  0
 46118  1  0
 46119  1  0
 46120  1  0
 47121  1  0
 47122  1  0
 47123  1  0
 48124  1  0
 48125  1  0
 48126  1  0
 50127  1  0
 50128  1  0
 51129  1  0
 51130  1  0
 53131  1  0
 53132  1  0
 53133  1  0
 55134  1  0
 55135  1  0
 56136  1  1
 57137  1  0
 57138  1  0
 59139  1  0
 59140  1  0
 60141  1  0
 60142  1  0
 63143  1  0
 63144  1  0
 64145  1  0
 64146  1  0
 65147  1  0
 65148  1  0
 69149  1  0
 70150  1  0
 72151  1  0
M  END
$$$$
