 energy: -221.281928319167 gnorm: 0.000349998092 xtb: 6.7.1 (edcfbbe)
          08172520153D

151157  0     0  0            999 V2000
    2.2726    7.0592   -8.1075 C   0  0  0  0  0  0  0  0  0  0  0  0
    2.2250    5.6289   -7.5731 C   0  0  0  0  0  0  0  0  0  0  0  0
    3.4195    4.9096   -7.8450 O   0  0  0  0  0  0  0  0  0  0  0  0
    4.4731    5.1719   -6.9564 C   0  0  0  0  0  0  0  0  0  0  0  0
    1.1006    4.8410   -8.2168 C   0  0  0  0  0  0  0  0  0  0  0  0
    0.7189    5.2170   -9.4252 N   0  0  0  0  0  0  0  0  0  0  0  0
   -0.2562    4.5642  -10.0292 C   0  0  0  0  0  0  0  0  0  0  0  0
   -0.9288    3.5014   -9.4481 C   0  0  0  0  0  0  0  0  0  0  0  0
   -0.5394    3.1031   -8.1811 C   0  0  0  0  0  0  0  0  0  0  0  0
    0.5073    3.7633   -7.5440 C   0  0  0  0  0  0  0  0  0  0  0  0
    0.9414    3.3712   -6.1948 C   0  0  0  0  0  0  0  0  0  0  0  0
    0.2540    3.8235   -5.0906 N   0  0  0  0  0  0  0  0  0  0  0  0
   -0.9291    4.6411   -5.1002 C   0  0  0  0  0  0  0  0  0  0  0  0
   -2.1976    3.8128   -4.8984 C   0  0  0  0  0  0  0  0  0  0  0  0
    2.0196    2.6108   -5.8087 C   0  0  0  0  0  0  0  0  0  0  0  0
    3.0077    1.9615   -6.7238 C   0  0  0  0  0  0  0  0  0  0  0  0
    2.7182    0.4866   -7.0886 C   0  0  0  0  0  0  0  0  0  0  0  0
    3.6186    0.0866   -8.2600 C   0  0  0  0  0  0  0  0  0  0  0  0
    1.2560    0.2908   -7.4843 C   0  0  0  0  0  0  0  0  0  0  0  0
    3.0123   -0.4273   -5.8952 C   0  0  0  0  0  0  0  0  0  0  0  0
    4.4110   -0.3863   -5.5934 O   0  0  0  0  0  0  0  0  0  0  0  0
    4.7995   -1.0199   -4.4975 C   0  0  0  0  0  0  0  0  0  0  0  0
    6.2918   -0.8626   -4.2454 C   0  0  0  0  0  0  0  0  0  0  0  0
    6.8045   -1.9898   -3.4860 N   0  0  0  0  0  0  0  0  0  0  0  0
    8.0506   -1.6582   -2.9500 N   0  0  0  0  0  0  0  0  0  0  0  0
    8.2559   -0.9977   -1.7873 C   0  0  0  0  0  0  0  0  0  0  0  0
    7.0139   -0.7902   -0.8965 C   0  0  0  0  0  0  0  0  0  0  0  0
    7.0330   -1.7354    0.1971 N   0  0  0  0  0  0  0  0  0  0  0  0
    6.4696   -2.9448    0.0683 C   0  0  0  0  0  0  0  0  0  0  0  0
    6.4390   -3.7352    1.3778 C   0  0  0  0  0  0  0  0  0  0  0  0
    6.4093   -5.2518    1.1462 C   0  0  0  0  0  0  0  0  0  0  0  0
    6.1439   -5.9929    2.4532 C   0  0  0  0  0  0  0  0  0  0  0  0
    7.7496   -5.6765    0.5488 C   0  0  0  0  0  0  0  0  0  0  0  0
    5.2955   -3.2362    2.1410 N   0  0  0  0  0  0  0  0  0  0  0  0
    5.5666   -2.4303    3.1829 C   0  0  0  0  0  0  0  0  0  0  0  0
    4.4333   -1.9864    4.1235 C   0  0  0  0  0  0  0  0  0  0  0  0
    4.2272   -3.0957    5.1633 C   0  0  0  0  0  0  0  0  0  0  0  0
    3.2203   -2.6491    6.2251 C   0  0  0  0  0  0  0  0  0  0  0  0
    3.6402   -1.4037    6.8191 N   0  0  0  0  0  0  0  0  0  0  0  0
    4.0262   -1.3683    8.1192 C   0  0  0  0  0  0  0  0  0  0  0  0
    4.4915   -0.0807    8.5743 C   0  0  0  0  0  0  0  0  0  0  0  0
    4.9005    0.9348    9.0734 C   0  0  0  0  0  0  0  0  0  0  0  0
    5.3608    2.1992    9.6403 C   0  0  0  0  0  0  0  0  0  0  0  0
    5.6029    3.1187    8.5210 N   0  0  0  0  0  0  0  0  0  0  0  0
    6.5999    2.6480    7.5807 C   0  0  0  0  0  0  0  0  0  0  0  0
    5.8613    4.4942    8.8851 C   0  0  0  0  0  0  0  0  0  0  0  0
    4.2123    2.7149   10.5226 C   0  0  0  0  0  0  0  0  0  0  0  0
    6.5966    1.9142   10.5170 C   0  0  0  0  0  0  0  0  0  0  0  0
    3.9672   -2.3328    8.8600 O   0  0  0  0  0  0  0  0  0  0  0  0
    3.7751   -0.3177    5.8816 C   0  0  0  0  0  0  0  0  0  0  0  0
    4.8071   -0.6694    4.8077 C   0  0  0  0  0  0  0  0  0  0  0  0
    6.7111   -2.1302    3.4939 O   0  0  0  0  0  0  0  0  0  0  0  0
    3.9873   -3.4275    1.5502 C   0  0  0  0  0  0  0  0  0  0  0  0
    5.9756   -3.3463   -0.9707 O   0  0  0  0  0  0  0  0  0  0  0  0
    6.9723    0.6536   -0.3939 C   0  0  0  0  0  0  0  0  0  0  0  0
    5.5503    1.1435   -0.1084 C   0  0  0  0  0  0  0  0  0  0  0  0
    4.7044    1.2679   -1.3872 C   0  0  0  0  0  0  0  0  0  0  0  0
    3.3859    1.7482   -1.0329 N   0  0  0  0  0  0  0  0  0  0  0  0
    2.7656    0.8190   -0.1027 C   0  0  0  0  0  0  0  0  0  0  0  0
    3.6435    0.7140    1.1423 C   0  0  0  0  0  0  0  0  0  0  0  0
    4.9403    0.2668    0.8184 O   0  0  0  0  0  0  0  0  0  0  0  0
    9.3612   -0.6289   -1.4351 O   0  0  0  0  0  0  0  0  0  0  0  0
    9.0382   -1.6221   -4.0131 C   0  0  0  0  0  0  0  0  0  0  0  0
    8.6286   -0.5575   -5.0398 C   0  0  0  0  0  0  0  0  0  0  0  0
    7.1775   -0.7591   -5.4910 C   0  0  0  0  0  0  0  0  0  0  0  0
    4.0605   -1.5921   -3.7385 O   0  0  0  0  0  0  0  0  0  0  0  0
    2.0102    2.6008   -4.3793 C   0  0  0  0  0  0  0  0  0  0  0  0
    0.8874    3.3577   -3.9712 C   0  0  0  0  0  0  0  0  0  0  0  0
    0.5983    3.5504   -2.6255 C   0  0  0  0  0  0  0  0  0  0  0  0
    1.4385    2.9849   -1.6973 C   0  0  0  0  0  0  0  0  0  0  0  0
    2.5662    2.2294   -2.0729 C   0  0  0  0  0  0  0  0  0  0  0  0
    2.8550    2.0460   -3.4144 C   0  0  0  0  0  0  0  0  0  0  0  0
    3.2260   -1.7778    3.4615 F   0  0  0  0  0  0  0  0  0  0  0  0
    3.0659    7.6219   -7.6220 H   0  0  0  0  0  0  0  0  0  0  0  0
    2.4482    7.0339   -9.1782 H   0  0  0  0  0  0  0  0  0  0  0  0
    1.3238    7.5527   -7.9172 H   0  0  0  0  0  0  0  0  0  0  0  0
    2.0624    5.6443   -6.4815 H   0  0  0  0  0  0  0  0  0  0  0  0
    4.1798    4.9537   -5.9213 H   0  0  0  0  0  0  0  0  0  0  0  0
    5.2869    4.5110   -7.2490 H   0  0  0  0  0  0  0  0  0  0  0  0
    4.8166    6.2103   -7.0173 H   0  0  0  0  0  0  0  0  0  0  0  0
   -0.5124    4.9215  -11.0180 H   0  0  0  0  0  0  0  0  0  0  0  0
   -1.7331    3.0028   -9.9664 H   0  0  0  0  0  0  0  0  0  0  0  0
   -1.0387    2.2828   -7.6854 H   0  0  0  0  0  0  0  0  0  0  0  0
   -0.8433    5.3838   -4.3004 H   0  0  0  0  0  0  0  0  0  0  0  0
   -0.9766    5.1703   -6.0565 H   0  0  0  0  0  0  0  0  0  0  0  0
   -2.1371    3.2530   -3.9684 H   0  0  0  0  0  0  0  0  0  0  0  0
   -3.0662    4.4647   -4.8609 H   0  0  0  0  0  0  0  0  0  0  0  0
   -2.3264    3.1093   -5.7169 H   0  0  0  0  0  0  0  0  0  0  0  0
    3.0418    2.5404   -7.6485 H   0  0  0  0  0  0  0  0  0  0  0  0
    3.9983    2.0019   -6.2659 H   0  0  0  0  0  0  0  0  0  0  0  0
    4.6642    0.2264   -8.0000 H   0  0  0  0  0  0  0  0  0  0  0  0
    3.4652   -0.9590   -8.5185 H   0  0  0  0  0  0  0  0  0  0  0  0
    3.3927    0.6952   -9.1320 H   0  0  0  0  0  0  0  0  0  0  0  0
    0.5991    0.5324   -6.6521 H   0  0  0  0  0  0  0  0  0  0  0  0
    1.0127    0.9354   -8.3245 H   0  0  0  0  0  0  0  0  0  0  0  0
    1.0759   -0.7415   -7.7768 H   0  0  0  0  0  0  0  0  0  0  0  0
    2.4453   -0.1156   -5.0122 H   0  0  0  0  0  0  0  0  0  0  0  0
    2.7418   -1.4639   -6.1244 H   0  0  0  0  0  0  0  0  0  0  0  0
    6.3865    0.0873   -3.6764 H   0  0  0  0  0  0  0  0  0  0  0  0
    6.1706   -2.4016   -2.8022 H   0  0  0  0  0  0  0  0  0  0  0  0
    6.1057   -1.0112   -1.4614 H   0  0  0  0  0  0  0  0  0  0  0  0
    7.4086   -1.4382    1.0849 H   0  0  0  0  0  0  0  0  0  0  0  0
    7.3254   -3.4893    1.9714 H   0  0  0  0  0  0  0  0  0  0  0  0
    5.6273   -5.4932    0.4204 H   0  0  0  0  0  0  0  0  0  0  0  0
    5.1588   -5.7569    2.8469 H   0  0  0  0  0  0  0  0  0  0  0  0
    6.1983   -7.0666    2.2911 H   0  0  0  0  0  0  0  0  0  0  0  0
    6.8869   -5.7187    3.1992 H   0  0  0  0  0  0  0  0  0  0  0  0
    7.7464   -6.7440    0.3434 H   0  0  0  0  0  0  0  0  0  0  0  0
    7.9335   -5.1488   -0.3835 H   0  0  0  0  0  0  0  0  0  0  0  0
    8.5626   -5.4601    1.2388 H   0  0  0  0  0  0  0  0  0  0  0  0
    3.8687   -4.0021    4.6732 H   0  0  0  0  0  0  0  0  0  0  0  0
    5.1912   -3.3072    5.6275 H   0  0  0  0  0  0  0  0  0  0  0  0
    2.2355   -2.5120    5.7636 H   0  0  0  0  0  0  0  0  0  0  0  0
    3.1483   -3.3933    7.0207 H   0  0  0  0  0  0  0  0  0  0  0  0
    7.6315    2.7954    7.9338 H   0  0  0  0  0  0  0  0  0  0  0  0
    6.4464    1.5899    7.3787 H   0  0  0  0  0  0  0  0  0  0  0  0
    6.4801    3.2002    6.6475 H   0  0  0  0  0  0  0  0  0  0  0  0
    5.0481    4.8864    9.4894 H   0  0  0  0  0  0  0  0  0  0  0  0
    6.8106    4.6348    9.4249 H   0  0  0  0  0  0  0  0  0  0  0  0
    5.9097    5.0788    7.9662 H   0  0  0  0  0  0  0  0  0  0  0  0
    3.8462    1.9030   11.1467 H   0  0  0  0  0  0  0  0  0  0  0  0
    4.5491    3.5195   11.1710 H   0  0  0  0  0  0  0  0  0  0  0  0
    3.3958    3.0680    9.8979 H   0  0  0  0  0  0  0  0  0  0  0  0
    6.3256    1.2289   11.3158 H   0  0  0  0  0  0  0  0  0  0  0  0
    7.3903    1.4587    9.9299 H   0  0  0  0  0  0  0  0  0  0  0  0
    6.9646    2.8376   10.9589 H   0  0  0  0  0  0  0  0  0  0  0  0
    2.8023   -0.1455    5.4042 H   0  0  0  0  0  0  0  0  0  0  0  0
    4.0721    0.5881    6.4123 H   0  0  0  0  0  0  0  0  0  0  0  0
    5.7977   -0.7844    5.2464 H   0  0  0  0  0  0  0  0  0  0  0  0
    4.8513    0.1193    4.0553 H   0  0  0  0  0  0  0  0  0  0  0  0
    3.2927   -3.8829    2.2562 H   0  0  0  0  0  0  0  0  0  0  0  0
    3.5734   -2.4783    1.2077 H   0  0  0  0  0  0  0  0  0  0  0  0
    4.0890   -4.0777    0.6865 H   0  0  0  0  0  0  0  0  0  0  0  0
    7.5699    0.7267    0.5157 H   0  0  0  0  0  0  0  0  0  0  0  0
    7.4242    1.3125   -1.1374 H   0  0  0  0  0  0  0  0  0  0  0  0
    5.6071    2.1502    0.3436 H   0  0  0  0  0  0  0  0  0  0  0  0
    5.1792    1.9924   -2.0527 H   0  0  0  0  0  0  0  0  0  0  0  0
    4.6417    0.2890   -1.8887 H   0  0  0  0  0  0  0  0  0  0  0  0
    1.7733    1.1723    0.1735 H   0  0  0  0  0  0  0  0  0  0  0  0
    2.6708   -0.1809   -0.5600 H   0  0  0  0  0  0  0  0  0  0  0  0
    3.7036    1.7014    1.6264 H   0  0  0  0  0  0  0  0  0  0  0  0
    3.2307   -0.0110    1.8437 H   0  0  0  0  0  0  0  0  0  0  0  0
   10.0072   -1.3902   -3.5715 H   0  0  0  0  0  0  0  0  0  0  0  0
    9.0625   -2.6101   -4.4770 H   0  0  0  0  0  0  0  0  0  0  0  0
    8.7308    0.4287   -4.5801 H   0  0  0  0  0  0  0  0  0  0  0  0
    9.2983   -0.6026   -5.8986 H   0  0  0  0  0  0  0  0  0  0  0  0
    7.0897   -1.6889   -6.0537 H   0  0  0  0  0  0  0  0  0  0  0  0
    6.8566    0.0679   -6.1239 H   0  0  0  0  0  0  0  0  0  0  0  0
   -0.2512    4.1368   -2.3090 H   0  0  0  0  0  0  0  0  0  0  0  0
    1.2486    3.1415   -0.6467 H   0  0  0  0  0  0  0  0  0  0  0  0
    3.7222    1.4875   -3.7278 H   0  0  0  0  0  0  0  0  0  0  0  0
  1  2  1  0  0  0  0
  2  3  1  0  0  0  0
  2  5  1  0  0  0  0
  3  4  1  0  0  0  0
  5  6  2  0  0  0  0
  5 10  1  0  0  0  0
  6  7  1  0  0  0  0
  7  8  2  0  0  0  0
  8  9  1  0  0  0  0
  9 10  2  0  0  0  0
 10 11  1  0  0  0  0
 11 12  1  0  0  0  0
 11 15  2  0  0  0  0
 12 13  1  0  0  0  0
 12 68  1  0  0  0  0
 13 14  1  0  0  0  0
 15 16  1  0  0  0  0
 15 67  1  0  0  0  0
 16 17  1  0  0  0  0
 17 18  1  0  0  0  0
 17 19  1  0  0  0  0
 17 20  1  0  0  0  0
 20 21  1  0  0  0  0
 21 22  1  0  0  0  0
 22 23  1  0  0  0  0
 22 66  2  0  0  0  0
 23 24  1  0  0  0  0
 23 65  1  0  0  0  0
 24 25  1  0  0  0  0
 25 26  1  0  0  0  0
 25 63  1  0  0  0  0
 26 27  1  0  0  0  0
 26 62  2  0  0  0  0
 27 28  1  0  0  0  0
 27 55  1  0  0  0  0
 28 29  1  0  0  0  0
 29 30  1  0  0  0  0
 29 54  2  0  0  0  0
 30 31  1  0  0  0  0
 30 34  1  0  0  0  0
 31 32  1  0  0  0  0
 31 33  1  0  0  0  0
 34 35  1  0  0  0  0
 34 53  1  0  0  0  0
 35 36  1  0  0  0  0
 35 52  2  0  0  0  0
 36 37  1  0  0  0  0
 36 51  1  0  0  0  0
 36 73  1  0  0  0  0
 37 38  1  0  0  0  0
 38 39  1  0  0  0  0
 39 40  1  0  0  0  0
 39 50  1  0  0  0  0
 40 41  1  0  0  0  0
 40 49  2  0  0  0  0
 42 43  1  0  0  0  0
 43 44  1  0  0  0  0
 43 47  1  0  0  0  0
 43 48  1  0  0  0  0
 44 45  1  0  0  0  0
 44 46  1  0  0  0  0
 50 51  1  0  0  0  0
 55 56  1  0  0  0  0
 56 57  1  0  0  0  0
 56 61  1  0  0  0  0
 57 58  1  0  0  0  0
 58 59  1  0  0  0  0
 58 71  1  0  0  0  0
 59 60  1  0  0  0  0
 60 61  1  0  0  0  0
 63 64  1  0  0  0  0
 64 65  1  0  0  0  0
 67 68  2  0  0  0  0
 67 72  1  0  0  0  0
 68 69  1  0  0  0  0
 69 70  2  0  0  0  0
 70 71  1  0  0  0  0
 71 72  2  0  0  0  0
  1 74  1  0  0  0  0
  1 75  1  0  0  0  0
  1 76  1  0  0  0  0
  2 77  1  0  0  0  0
  4 78  1  0  0  0  0
  4 79  1  0  0  0  0
  4 80  1  0  0  0  0
  7 81  1  0  0  0  0
  8 82  1  0  0  0  0
  9 83  1  0  0  0  0
 13 84  1  0  0  0  0
 13 85  1  0  0  0  0
 14 86  1  0  0  0  0
 14 87  1  0  0  0  0
 14 88  1  0  0  0  0
 16 89  1  0  0  0  0
 16 90  1  0  0  0  0
 18 91  1  0  0  0  0
 18 92  1  0  0  0  0
 18 93  1  0  0  0  0
 19 94  1  0  0  0  0
 19 95  1  0  0  0  0
 19 96  1  0  0  0  0
 20 97  1  0  0  0  0
 20 98  1  0  0  0  0
 23 99  1  0  0  0  0
 24100  1  0  0  0  0
 27101  1  0  0  0  0
 28102  1  0  0  0  0
 30103  1  0  0  0  0
 31104  1  0  0  0  0
 32105  1  0  0  0  0
 32106  1  0  0  0  0
 32107  1  0  0  0  0
 33108  1  0  0  0  0
 33109  1  0  0  0  0
 33110  1  0  0  0  0
 37111  1  0  0  0  0
 37112  1  0  0  0  0
 38113  1  0  0  0  0
 38114  1  0  0  0  0
 45115  1  0  0  0  0
 45116  1  0  0  0  0
 45117  1  0  0  0  0
 46118  1  0  0  0  0
 46119  1  0  0  0  0
 46120  1  0  0  0  0
 47121  1  0  0  0  0
 47122  1  0  0  0  0
 47123  1  0  0  0  0
 48124  1  0  0  0  0
 48125  1  0  0  0  0
 48126  1  0  0  0  0
 50127  1  0  0  0  0
 50128  1  0  0  0  0
 51129  1  0  0  0  0
 51130  1  0  0  0  0
 53131  1  0  0  0  0
 53132  1  0  0  0  0
 53133  1  0  0  0  0
 55134  1  0  0  0  0
 55135  1  0  0  0  0
 56136  1  0  0  0  0
 57137  1  0  0  0  0
 57138  1  0  0  0  0
 59139  1  0  0  0  0
 59140  1  0  0  0  0
 60141  1  0  0  0  0
 60142  1  0  0  0  0
 63143  1  0  0  0  0
 63144  1  0  0  0  0
 64145  1  0  0  0  0
 64146  1  0  0  0  0
 65147  1  0  0  0  0
 65148  1  0  0  0  0
 69149  1  0  0  0  0
 70150  1  0  0  0  0
 72151  1  0  0  0  0
 41 42  3  0  0  0  0
M  END
$$$$
