mol_bioactive_45
     RDKit          3D

151157  0  0  0  0  0  0  0  0999 V2000
   -3.1113   -0.7546    4.7950 C   0  0  0  0  0  0  0  0  0  0  0  0
   -2.2626   -1.9806    4.4644 C   0  0  2  0  0  0  0  0  0  0  0  0
   -3.1875   -3.0688    4.2650 O   0  0  0  0  0  0  0  0  0  0  0  0
   -2.7919   -3.9414    3.2175 C   0  0  0  0  0  0  0  0  0  0  0  0
   -1.3121   -2.2920    5.6167 C   0  0  0  0  0  0  0  0  0  0  0  0
   -1.9016   -2.7025    6.7814 N   0  0  0  0  0  0  0  0  0  0  0  0
   -1.1132   -3.0355    7.8225 C   0  0  0  0  0  0  0  0  0  0  0  0
    0.2640   -2.9838    7.7806 C   0  0  0  0  0  0  0  0  0  0  0  0
    0.8637   -2.5543    6.6033 C   0  0  0  0  0  0  0  0  0  0  0  0
    0.0833   -2.1828    5.4982 C   0  0  0  0  0  0  0  0  0  0  0  0
    0.7673   -1.7382    4.2778 C   0  0  0  0  0  0  0  0  0  0  0  0
    1.2842   -2.6268    3.3458 N   0  0  0  0  0  0  0  0  0  0  0  0
    1.2739   -4.0811    3.4520 C   0  0  0  0  0  0  0  0  0  0  0  0
    2.6033   -4.6330    3.9413 C   0  0  0  0  0  0  0  0  0  0  0  0
    1.0249   -0.4478    3.8111 C   0  0  0  0  0  0  0  0  0  0  0  0
    0.6610    0.8781    4.4450 C   0  0  0  0  0  0  0  0  0  0  0  0
    1.7077    1.5528    5.3765 C   0  0  0  0  0  0  0  0  0  0  0  0
    1.9815    0.6717    6.6086 C   0  0  0  0  0  0  0  0  0  0  0  0
    1.0916    2.8787    5.8804 C   0  0  0  0  0  0  0  0  0  0  0  0
    3.0696    1.8500    4.6978 C   0  0  0  0  0  0  0  0  0  0  0  0
    3.0168    2.9773    3.7994 O   0  0  0  0  0  0  0  0  0  0  0  0
    4.1912    3.6820    3.7247 C   0  0  0  0  0  0  0  0  0  0  0  0
    4.1147    4.8932    2.7840 C   0  0  1  0  0  0  0  0  0  0  0  0
    2.7409    5.4036    2.6334 N   0  0  0  0  0  0  0  0  0  0  0  0
    2.7024    6.5137    1.7467 N   0  0  0  0  0  0  0  0  0  0  0  0
    2.3144    6.4724    0.3991 C   0  0  0  0  0  0  0  0  0  0  0  0
    2.0356    5.0901   -0.2226 C   0  0  1  0  0  0  0  0  0  0  0  0
    0.8186    5.1122   -1.0151 N   0  0  0  0  0  0  0  0  0  0  0  0
   -0.4040    4.8498   -0.4338 C   0  0  0  0  0  0  0  0  0  0  0  0
   -1.6101    4.8860   -1.4053 C   0  0  2  0  0  0  0  0  0  0  0  0
   -2.3811    6.2292   -1.3093 C   0  0  0  0  0  0  0  0  0  0  0  0
   -3.4904    6.2990   -2.3676 C   0  0  0  0  0  0  0  0  0  0  0  0
   -1.4600    7.4431   -1.4966 C   0  0  0  0  0  0  0  0  0  0  0  0
   -2.4219    3.6608   -1.1496 N   0  0  0  0  0  0  0  0  0  0  0  0
   -1.9534    2.4848   -1.7477 C   0  0  0  0  0  0  0  0  0  0  0  0
   -2.5806    1.1162   -1.3820 C   0  0  0  0  0  0  0  0  0  0  0  0
   -2.1292    0.6509    0.0140 C   0  0  0  0  0  0  0  0  0  0  0  0
   -2.6613   -0.7494    0.3155 C   0  0  0  0  0  0  0  0  0  0  0  0
   -2.2504   -1.6630   -0.7365 N   0  0  0  0  0  0  0  0  0  0  0  0
   -1.2891   -2.6265   -0.4594 C   0  0  0  0  0  0  0  0  0  0  0  0
   -0.5404   -3.1835   -1.5622 C   0  0  0  0  0  0  0  0  0  0  0  0
    0.1519   -3.5724   -2.4652 C   0  0  0  0  0  0  0  0  0  0  0  0
    1.0685   -3.9914   -3.5559 C   0  0  0  0  0  0  0  0  0  0  0  0
    1.5830   -2.7640   -4.2247 N   0  0  0  0  0  0  0  0  0  0  0  0
    2.7526   -2.9751   -5.0786 C   0  0  0  0  0  0  0  0  0  0  0  0
    0.5661   -2.0210   -4.9755 C   0  0  0  0  0  0  0  0  0  0  0  0
    2.2077   -4.7919   -2.8778 C   0  0  0  0  0  0  0  0  0  0  0  0
    0.3112   -4.9472   -4.5026 C   0  0  0  0  0  0  0  0  0  0  0  0
   -1.0154   -3.0134    0.6703 O   0  0  0  0  0  0  0  0  0  0  0  0
   -2.7008   -1.3032   -2.0743 C   0  0  0  0  0  0  0  0  0  0  0  0
   -2.1835    0.0755   -2.4476 C   0  0  0  0  0  0  0  0  0  0  0  0
   -1.0095    2.5293   -2.5472 O   0  0  0  0  0  0  0  0  0  0  0  0
   -3.3904    3.6884   -0.0527 C   0  0  0  0  0  0  0  0  0  0  0  0
   -0.5107    4.5978    0.7658 O   0  0  0  0  0  0  0  0  0  0  0  0
    3.2622    4.6672   -1.0565 C   0  0  0  0  0  0  0  0  0  0  0  0
    3.2908    3.1851   -1.4797 C   0  0  1  0  0  0  0  0  0  0  0  0
    2.8462    2.2494   -0.3432 C   0  0  0  0  0  0  0  0  0  0  0  0
    2.8835    0.8345   -0.7512 N   0  0  0  0  0  0  0  0  0  0  0  0
    2.0878    0.6289   -1.9915 C   0  0  0  0  0  0  0  0  0  0  0  0
    2.5168    1.6349   -3.0802 C   0  0  0  0  0  0  0  0  0  0  0  0
    2.4498    3.0035   -2.6325 O   0  0  0  0  0  0  0  0  0  0  0  0
    2.2664    7.4875   -0.3059 O   0  0  0  0  0  0  0  0  0  0  0  0
    3.3844    7.6946    2.2749 C   0  0  0  0  0  0  0  0  0  0  0  0
    4.8539    7.3322    2.5031 C   0  0  0  0  0  0  0  0  0  0  0  0
    4.9886    6.0433    3.3320 C   0  0  0  0  0  0  0  0  0  0  0  0
    5.2310    3.3585    4.2935 O   0  0  0  0  0  0  0  0  0  0  0  0
    1.6129   -0.5935    2.5112 C   0  0  0  0  0  0  0  0  0  0  0  0
    1.7731   -1.9468    2.2485 C   0  0  0  0  0  0  0  0  0  0  0  0
    2.3271   -2.4016    1.0415 C   0  0  0  0  0  0  0  0  0  0  0  0
    2.6900   -1.4532    0.0736 C   0  0  0  0  0  0  0  0  0  0  0  0
    2.5208   -0.0796    0.2735 C   0  0  0  0  0  0  0  0  0  0  0  0
    2.0022    0.3308    1.5179 C   0  0  0  0  0  0  0  0  0  0  0  0
   -3.9504    1.1777   -1.3964 F   0  0  0  0  0  0  0  0  0  0  0  0
   -3.7389   -0.9252    5.6778 H   0  0  0  0  0  0  0  0  0  0  0  0
   -2.4972    0.1311    4.9769 H   0  0  0  0  0  0  0  0  0  0  0  0
   -3.7969   -0.5379    3.9660 H   0  0  0  0  0  0  0  0  0  0  0  0
   -1.7250   -1.7800    3.5327 H   0  0  0  0  0  0  0  0  0  0  0  0
   -3.4093   -4.8436    3.2707 H   0  0  0  0  0  0  0  0  0  0  0  0
   -2.9781   -3.4585    2.2532 H   0  0  0  0  0  0  0  0  0  0  0  0
   -1.7412   -4.2344    3.3054 H   0  0  0  0  0  0  0  0  0  0  0  0
   -1.6384   -3.3583    8.7170 H   0  0  0  0  0  0  0  0  0  0  0  0
    0.8577   -3.2682    8.6409 H   0  0  0  0  0  0  0  0  0  0  0  0
    1.9482   -2.5038    6.5477 H   0  0  0  0  0  0  0  0  0  0  0  0
    0.4716   -4.3822    4.1301 H   0  0  0  0  0  0  0  0  0  0  0  0
    1.0210   -4.4886    2.4670 H   0  0  0  0  0  0  0  0  0  0  0  0
    2.8729   -4.2153    4.9151 H   0  0  0  0  0  0  0  0  0  0  0  0
    2.5466   -5.7199    4.0419 H   0  0  0  0  0  0  0  0  0  0  0  0
    3.4142   -4.3979    3.2445 H   0  0  0  0  0  0  0  0  0  0  0  0
    0.3961    1.5784    3.6416 H   0  0  0  0  0  0  0  0  0  0  0  0
   -0.2684    0.7360    5.0097 H   0  0  0  0  0  0  0  0  0  0  0  0
    2.5692    1.2147    7.3586 H   0  0  0  0  0  0  0  0  0  0  0  0
    1.0493    0.3623    7.0926 H   0  0  0  0  0  0  0  0  0  0  0  0
    2.5568   -0.2188    6.3374 H   0  0  0  0  0  0  0  0  0  0  0  0
    1.8080    3.4400    6.4912 H   0  0  0  0  0  0  0  0  0  0  0  0
    0.7862    3.5240    5.0493 H   0  0  0  0  0  0  0  0  0  0  0  0
    0.2050    2.6929    6.4963 H   0  0  0  0  0  0  0  0  0  0  0  0
    3.7976    2.0463    5.4956 H   0  0  0  0  0  0  0  0  0  0  0  0
    3.4355    0.9823    4.1397 H   0  0  0  0  0  0  0  0  0  0  0  0
    4.4947    4.5559    1.8137 H   0  0  0  0  0  0  0  0  0  0  0  0
    2.0442    4.6821    2.4427 H   0  0  0  0  0  0  0  0  0  0  0  0
    1.8774    4.3809    0.5821 H   0  0  0  0  0  0  0  0  0  0  0  0
    0.8803    5.3609   -1.9951 H   0  0  0  0  0  0  0  0  0  0  0  0
   -1.2137    4.8145   -2.4278 H   0  0  0  0  0  0  0  0  0  0  0  0
   -2.8343    6.3296   -0.3160 H   0  0  0  0  0  0  0  0  0  0  0  0
   -4.0645    7.2266   -2.2634 H   0  0  0  0  0  0  0  0  0  0  0  0
   -3.0707    6.2764   -3.3791 H   0  0  0  0  0  0  0  0  0  0  0  0
   -4.1954    5.4686   -2.2790 H   0  0  0  0  0  0  0  0  0  0  0  0
   -0.7369    7.5242   -0.6794 H   0  0  0  0  0  0  0  0  0  0  0  0
   -0.9083    7.3828   -2.4409 H   0  0  0  0  0  0  0  0  0  0  0  0
   -2.0401    8.3726   -1.5041 H   0  0  0  0  0  0  0  0  0  0  0  0
   -1.0326    0.6499    0.0627 H   0  0  0  0  0  0  0  0  0  0  0  0
   -2.4795    1.3273    0.7977 H   0  0  0  0  0  0  0  0  0  0  0  0
   -2.2923   -1.0778    1.2904 H   0  0  0  0  0  0  0  0  0  0  0  0
   -3.7563   -0.7497    0.3575 H   0  0  0  0  0  0  0  0  0  0  0  0
    3.6141   -3.3278   -4.5033 H   0  0  0  0  0  0  0  0  0  0  0  0
    2.5552   -3.6810   -5.8930 H   0  0  0  0  0  0  0  0  0  0  0  0
    3.0767   -2.0275   -5.5274 H   0  0  0  0  0  0  0  0  0  0  0  0
   -0.3225   -1.8122   -4.3712 H   0  0  0  0  0  0  0  0  0  0  0  0
    0.9593   -1.0405   -5.2718 H   0  0  0  0  0  0  0  0  0  0  0  0
    0.2511   -2.5426   -5.8865 H   0  0  0  0  0  0  0  0  0  0  0  0
    2.8169   -4.1497   -2.2305 H   0  0  0  0  0  0  0  0  0  0  0  0
    1.8076   -5.5925   -2.2435 H   0  0  0  0  0  0  0  0  0  0  0  0
    2.8695   -5.2684   -3.6086 H   0  0  0  0  0  0  0  0  0  0  0  0
   -0.0240   -5.8446   -3.9669 H   0  0  0  0  0  0  0  0  0  0  0  0
   -0.5896   -4.4859   -4.9240 H   0  0  0  0  0  0  0  0  0  0  0  0
    0.9432   -5.2814   -5.3328 H   0  0  0  0  0  0  0  0  0  0  0  0
   -2.3905   -2.0425   -2.8163 H   0  0  0  0  0  0  0  0  0  0  0  0
   -3.7979   -1.3099   -2.0650 H   0  0  0  0  0  0  0  0  0  0  0  0
   -2.5969    0.3628   -3.4221 H   0  0  0  0  0  0  0  0  0  0  0  0
   -1.0937    0.0295   -2.5552 H   0  0  0  0  0  0  0  0  0  0  0  0
   -2.8605    3.7974    0.8965 H   0  0  0  0  0  0  0  0  0  0  0  0
   -4.0833    4.5216   -0.1809 H   0  0  0  0  0  0  0  0  0  0  0  0
   -3.9959    2.7869   -0.0047 H   0  0  0  0  0  0  0  0  0  0  0  0
    3.3306    5.2983   -1.9530 H   0  0  0  0  0  0  0  0  0  0  0  0
    4.1687    4.8634   -0.4703 H   0  0  0  0  0  0  0  0  0  0  0  0
    4.3189    2.9428   -1.7821 H   0  0  0  0  0  0  0  0  0  0  0  0
    3.4971    2.4175    0.5238 H   0  0  0  0  0  0  0  0  0  0  0  0
    1.8072    2.4824   -0.0882 H   0  0  0  0  0  0  0  0  0  0  0  0
    2.2158   -0.3826   -2.3897 H   0  0  0  0  0  0  0  0  0  0  0  0
    1.0276    0.7812   -1.7641 H   0  0  0  0  0  0  0  0  0  0  0  0
    3.5397    1.4264   -3.4165 H   0  0  0  0  0  0  0  0  0  0  0  0
    1.8555    1.5427   -3.9472 H   0  0  0  0  0  0  0  0  0  0  0  0
    3.3081    8.5409    1.5856 H   0  0  0  0  0  0  0  0  0  0  0  0
    2.8998    7.9766    3.2177 H   0  0  0  0  0  0  0  0  0  0  0  0
    5.3443    7.1778    1.5338 H   0  0  0  0  0  0  0  0  0  0  0  0
    5.3730    8.1566    3.0038 H   0  0  0  0  0  0  0  0  0  0  0  0
    4.7059    6.2583    4.3722 H   0  0  0  0  0  0  0  0  0  0  0  0
    6.0418    5.7384    3.3527 H   0  0  0  0  0  0  0  0  0  0  0  0
    2.4527   -3.4593    0.8361 H   0  0  0  0  0  0  0  0  0  0  0  0
    3.1201   -1.8128   -0.8584 H   0  0  0  0  0  0  0  0  0  0  0  0
    1.8467    1.3757    1.7500 H   0  0  0  0  0  0  0  0  0  0  0  0
  1  2  1  0
  2  3  1  0
  2  5  1  0
  3  4  1  0
  5  6  2  0
  5 10  1  0
  6  7  1  0
  7  8  2  0
  8  9  1  0
  9 10  2  0
 10 11  1  0
 11 12  1  0
 11 15  2  0
 12 13  1  0
 12 68  1  0
 13 14  1  0
 15 16  1  0
 15 67  1  0
 16 17  1  0
 17 18  1  0
 17 19  1  0
 17 20  1  0
 20 21  1  0
 21 22  1  0
 22 23  1  0
 22 66  2  0
 23 24  1  0
 23 65  1  0
 24 25  1  0
 25 26  1  0
 25 63  1  0
 26 27  1  0
 26 62  2  0
 27 28  1  0
 27 55  1  0
 28 29  1  0
 29 30  1  0
 29 54  2  0
 30 31  1  0
 30 34  1  0
 31 32  1  0
 31 33  1  0
 34 35  1  0
 34 53  1  0
 35 36  1  0
 35 52  2  0
 36 37  1  0
 36 51  1  0
 36 73  1  0
 37 38  1  0
 38 39  1  0
 39 40  1  0
 39 50  1  0
 40 41  1  0
 40 49  2  0
 42 43  1  0
 43 44  1  0
 43 47  1  0
 43 48  1  0
 44 45  1  0
 44 46  1  0
 50 51  1  0
 55 56  1  0
 56 57  1  0
 56 61  1  0
 57 58  1  0
 58 59  1  0
 58 71  1  0
 59 60  1  0
 60 61  1  0
 63 64  1  0
 64 65  1  0
 67 68  2  0
 67 72  1  0
 68 69  1  0
 69 70  2  0
 70 71  1  0
 71 72  2  0
 41 42  3  0
  1 74  1  0
  1 75  1  0
  1 76  1  0
  2 77  1  6
  4 78  1  0
  4 79  1  0
  4 80  1  0
  7 81  1  0
  8 82  1  0
  9 83  1  0
 13 84  1  0
 13 85  1  0
 14 86  1  0
 14 87  1  0
 14 88  1  0
 16 89  1  0
 16 90  1  0
 18 91  1  0
 18 92  1  0
 18 93  1  0
 19 94  1  0
 19 95  1  0
 19 96  1  0
 20 97  1  0
 20 98  1  0
 23 99  1  6
 24100  1  0
 27101  1  1
 28102  1  0
 30103  1  6
 31104  1  0
 32105  1  0
 32106  1  0
 32107  1  0
 33108  1  0
 33109  1  0
 33110  1  0
 37111  1  0
 37112  1  0
 38113  1  0
 38114  1  0
 45115  1  0
 45116  1  0
 45117  1  0
 46118  1  0
 46119  1  0
 46120  1  0
 47121  1  0
 47122  1  0
 47123  1  0
 48124  1  0
 48125  1  0
 48126  1  0
 50127  1  0
 50128  1  0
 51129  1  0
 51130  1  0
 53131  1  0
 53132  1  0
 53133  1  0
 55134  1  0
 55135  1  0
 56136  1  6
 57137  1  0
 57138  1  0
 59139  1  0
 59140  1  0
 60141  1  0
 60142  1  0
 63143  1  0
 63144  1  0
 64145  1  0
 64146  1  0
 65147  1  0
 65148  1  0
 69149  1  0
 70150  1  0
 72151  1  0
M  END
$$$$
