 xtb: 6.7.1 (edcfbbe)
          08232516493D

151157  0     0  0            999 V2000
    2.8301   -3.3156    7.9033 C   0  0  0  0  0  0  0  0  0  0  0  0
    1.7811   -2.7776    6.9287 C   0  0  0  0  0  0  0  0  0  0  0  0
    0.5847   -2.3818    7.5867 O   0  0  0  0  0  0  0  0  0  0  0  0
    0.6700   -1.1639    8.2768 C   0  0  0  0  0  0  0  0  0  0  0  0
    1.3866   -3.8536    5.9344 C   0  0  0  0  0  0  0  0  0  0  0  0
    1.2382   -5.0699    6.4331 N   0  0  0  0  0  0  0  0  0  0  0  0
    0.8506   -6.0520    5.6424 C   0  0  0  0  0  0  0  0  0  0  0  0
    0.6020   -5.8814    4.2896 C   0  0  0  0  0  0  0  0  0  0  0  0
    0.7711   -4.6176    3.7544 C   0  0  0  0  0  0  0  0  0  0  0  0
    1.1641   -3.5669    4.5803 C   0  0  0  0  0  0  0  0  0  0  0  0
    1.3100   -2.2220    4.0137 C   0  0  0  0  0  0  0  0  0  0  0  0
    2.5436   -1.6187    3.8759 N   0  0  0  0  0  0  0  0  0  0  0  0
    3.8194   -2.2796    3.9960 C   0  0  0  0  0  0  0  0  0  0  0  0
    4.7431   -1.6398    5.0318 C   0  0  0  0  0  0  0  0  0  0  0  0
    0.3126   -1.3883    3.5625 C   0  0  0  0  0  0  0  0  0  0  0  0
   -1.1442   -1.6699    3.3473 C   0  0  0  0  0  0  0  0  0  0  0  0
   -2.1315   -1.4253    4.5115 C   0  0  0  0  0  0  0  0  0  0  0  0
   -3.5541   -1.5298    3.9504 C   0  0  0  0  0  0  0  0  0  0  0  0
   -1.9535   -2.4921    5.5920 C   0  0  0  0  0  0  0  0  0  0  0  0
   -1.9095   -0.0406    5.1585 C   0  0  0  0  0  0  0  0  0  0  0  0
   -2.7165    1.0149    4.6133 O   0  0  0  0  0  0  0  0  0  0  0  0
   -3.8185    1.3332    5.2871 C   0  0  0  0  0  0  0  0  0  0  0  0
   -4.5155    2.5529    4.6869 C   0  0  0  0  0  0  0  0  0  0  0  0
   -4.9547    2.3257    3.3145 N   0  0  0  0  0  0  0  0  0  0  0  0
   -5.4353    3.5214    2.7668 N   0  0  0  0  0  0  0  0  0  0  0  0
   -4.7049    4.4655    2.1328 C   0  0  0  0  0  0  0  0  0  0  0  0
   -3.2374    4.1070    1.8351 C   0  0  0  0  0  0  0  0  0  0  0  0
   -3.1089    3.7623    0.4342 N   0  0  0  0  0  0  0  0  0  0  0  0
   -3.3079    2.5117   -0.0001 C   0  0  0  0  0  0  0  0  0  0  0  0
   -3.1361    2.3183   -1.5106 C   0  0  0  0  0  0  0  0  0  0  0  0
   -4.4606    2.4947   -2.2701 C   0  0  0  0  0  0  0  0  0  0  0  0
   -4.2055    2.4145   -3.7754 C   0  0  0  0  0  0  0  0  0  0  0  0
   -5.1006    3.8414   -1.9339 C   0  0  0  0  0  0  0  0  0  0  0  0
   -2.4899    1.0190   -1.7178 N   0  0  0  0  0  0  0  0  0  0  0  0
   -1.1523    1.0356   -1.5713 C   0  0  0  0  0  0  0  0  0  0  0  0
   -0.3524   -0.2791   -1.5654 C   0  0  0  0  0  0  0  0  0  0  0  0
    1.1372    0.0205   -1.7579 C   0  0  0  0  0  0  0  0  0  0  0  0
    1.9550   -1.2687   -1.6856 C   0  0  0  0  0  0  0  0  0  0  0  0
    1.6869   -1.9802   -0.4617 N   0  0  0  0  0  0  0  0  0  0  0  0
    2.6188   -2.3698    0.4348 C   0  0  0  0  0  0  0  0  0  0  0  0
    3.9570   -1.8870    0.1919 C   0  0  0  0  0  0  0  0  0  0  0  0
    5.1221   -1.5871    0.1620 C   0  0  0  0  0  0  0  0  0  0  0  0
    6.5099   -1.1432    0.0513 C   0  0  0  0  0  0  0  0  0  0  0  0
    7.3348   -2.3302   -0.1968 N   0  0  0  0  0  0  0  0  0  0  0  0
    7.1848   -3.3741    0.7962 C   0  0  0  0  0  0  0  0  0  0  0  0
    8.7337   -2.0742   -0.4570 C   0  0  0  0  0  0  0  0  0  0  0  0
    6.8643   -0.3739    1.3414 C   0  0  0  0  0  0  0  0  0  0  0  0
    6.5764   -0.1870   -1.1515 C   0  0  0  0  0  0  0  0  0  0  0  0
    2.3691   -3.0871    1.3899 O   0  0  0  0  0  0  0  0  0  0  0  0
    0.2986   -2.3043   -0.2442 C   0  0  0  0  0  0  0  0  0  0  0  0
   -0.5369   -1.0248   -0.2410 C   0  0  0  0  0  0  0  0  0  0  0  0
   -0.5381    2.0842   -1.4268 O   0  0  0  0  0  0  0  0  0  0  0  0
   -3.3361   -0.1548   -1.7163 C   0  0  0  0  0  0  0  0  0  0  0  0
   -3.5826    1.5900    0.7547 O   0  0  0  0  0  0  0  0  0  0  0  0
   -2.3254    5.2797    2.1892 C   0  0  0  0  0  0  0  0  0  0  0  0
   -0.8365    5.0019    1.9327 C   0  0  0  0  0  0  0  0  0  0  0  0
   -0.4766    3.5304    2.1441 C   0  0  0  0  0  0  0  0  0  0  0  0
    0.9389    3.3119    1.9286 N   0  0  0  0  0  0  0  0  0  0  0  0
    1.3040    3.7584    0.5881 C   0  0  0  0  0  0  0  0  0  0  0  0
    0.8751    5.2136    0.3962 C   0  0  0  0  0  0  0  0  0  0  0  0
   -0.5073    5.3900    0.6124 O   0  0  0  0  0  0  0  0  0  0  0  0
   -5.1905    5.5135    1.7466 O   0  0  0  0  0  0  0  0  0  0  0  0
   -6.7069    3.8703    3.3730 C   0  0  0  0  0  0  0  0  0  0  0  0
   -6.4722    4.1181    4.8656 C   0  0  0  0  0  0  0  0  0  0  0  0
   -5.7701    2.9130    5.4911 C   0  0  0  0  0  0  0  0  0  0  0  0
   -4.1927    0.7882    6.2911 O   0  0  0  0  0  0  0  0  0  0  0  0
    0.9673   -0.1946    3.1339 C   0  0  0  0  0  0  0  0  0  0  0  0
    2.3556   -0.3918    3.2994 C   0  0  0  0  0  0  0  0  0  0  0  0
    3.2535    0.5854    2.8828 C   0  0  0  0  0  0  0  0  0  0  0  0
    2.7551    1.7712    2.3915 C   0  0  0  0  0  0  0  0  0  0  0  0
    1.3733    2.0175    2.2924 C   0  0  0  0  0  0  0  0  0  0  0  0
    0.4829    1.0119    2.6321 C   0  0  0  0  0  0  0  0  0  0  0  0
   -0.7613   -1.0928   -2.6251 F   0  0  0  0  0  0  0  0  0  0  0  0
    2.3876   -4.1227    8.4790 H   0  0  0  0  0  0  0  0  0  0  0  0
    3.6800   -3.7061    7.3500 H   0  0  0  0  0  0  0  0  0  0  0  0
    3.1755   -2.5342    8.5763 H   0  0  0  0  0  0  0  0  0  0  0  0
    2.1747   -1.9046    6.3854 H   0  0  0  0  0  0  0  0  0  0  0  0
   -0.3386   -0.9392    8.6193 H   0  0  0  0  0  0  0  0  0  0  0  0
    1.3360   -1.2253    9.1441 H   0  0  0  0  0  0  0  0  0  0  0  0
    1.0181   -0.3577    7.6170 H   0  0  0  0  0  0  0  0  0  0  0  0
    0.7454   -7.0183    6.1188 H   0  0  0  0  0  0  0  0  0  0  0  0
    0.2981   -6.7131    3.6728 H   0  0  0  0  0  0  0  0  0  0  0  0
    0.6372   -4.4340    2.6997 H   0  0  0  0  0  0  0  0  0  0  0  0
    3.6311   -3.3229    4.2589 H   0  0  0  0  0  0  0  0  0  0  0  0
    4.3056   -2.2632    3.0136 H   0  0  0  0  0  0  0  0  0  0  0  0
    4.3178   -1.6997    6.0290 H   0  0  0  0  0  0  0  0  0  0  0  0
    5.6960   -2.1636    5.0347 H   0  0  0  0  0  0  0  0  0  0  0  0
    4.9224   -0.5936    4.8010 H   0  0  0  0  0  0  0  0  0  0  0  0
   -1.4682   -1.0444    2.5128 H   0  0  0  0  0  0  0  0  0  0  0  0
   -1.2595   -2.7138    3.0456 H   0  0  0  0  0  0  0  0  0  0  0  0
   -4.2864   -1.3587    4.7360 H   0  0  0  0  0  0  0  0  0  0  0  0
   -3.7208   -0.8033    3.1570 H   0  0  0  0  0  0  0  0  0  0  0  0
   -3.7162   -2.5255    3.5439 H   0  0  0  0  0  0  0  0  0  0  0  0
   -2.7265   -2.3911    6.3506 H   0  0  0  0  0  0  0  0  0  0  0  0
   -2.0321   -3.4860    5.1570 H   0  0  0  0  0  0  0  0  0  0  0  0
   -0.9867   -2.4093    6.0772 H   0  0  0  0  0  0  0  0  0  0  0  0
   -2.1320   -0.1026    6.2275 H   0  0  0  0  0  0  0  0  0  0  0  0
   -0.8751    0.2794    5.0192 H   0  0  0  0  0  0  0  0  0  0  0  0
   -3.7847    3.3840    4.7466 H   0  0  0  0  0  0  0  0  0  0  0  0
   -4.2804    1.8725    2.7013 H   0  0  0  0  0  0  0  0  0  0  0  0
   -2.9492    3.2301    2.4191 H   0  0  0  0  0  0  0  0  0  0  0  0
   -2.8008    4.4950   -0.1858 H   0  0  0  0  0  0  0  0  0  0  0  0
   -2.4262    3.0691   -1.8749 H   0  0  0  0  0  0  0  0  0  0  0  0
   -5.1576    1.7091   -1.9659 H   0  0  0  0  0  0  0  0  0  0  0  0
   -3.6082    3.2654   -4.0960 H   0  0  0  0  0  0  0  0  0  0  0  0
   -3.6703    1.5086   -4.0473 H   0  0  0  0  0  0  0  0  0  0  0  0
   -5.1478    2.4345   -4.3177 H   0  0  0  0  0  0  0  0  0  0  0  0
   -5.3761    3.9069   -0.8846 H   0  0  0  0  0  0  0  0  0  0  0  0
   -4.4252    4.6613   -2.1687 H   0  0  0  0  0  0  0  0  0  0  0  0
   -6.0038    3.9697   -2.5259 H   0  0  0  0  0  0  0  0  0  0  0  0
    1.2878    0.5020   -2.7247 H   0  0  0  0  0  0  0  0  0  0  0  0
    1.4490    0.7122   -0.9756 H   0  0  0  0  0  0  0  0  0  0  0  0
    1.6835   -1.9122   -2.5332 H   0  0  0  0  0  0  0  0  0  0  0  0
    3.0212   -1.0433   -1.7434 H   0  0  0  0  0  0  0  0  0  0  0  0
    7.7005   -3.1504    1.7429 H   0  0  0  0  0  0  0  0  0  0  0  0
    6.1291   -3.5412    0.9997 H   0  0  0  0  0  0  0  0  0  0  0  0
    7.6075   -4.2938    0.3911 H   0  0  0  0  0  0  0  0  0  0  0  0
    9.2849   -1.7102    0.4242 H   0  0  0  0  0  0  0  0  0  0  0  0
    9.1911   -3.0121   -0.7725 H   0  0  0  0  0  0  0  0  0  0  0  0
    8.8460   -1.3581   -1.2662 H   0  0  0  0  0  0  0  0  0  0  0  0
    6.7345   -1.0073    2.2161 H   0  0  0  0  0  0  0  0  0  0  0  0
    7.8954   -0.0301    1.3012 H   0  0  0  0  0  0  0  0  0  0  0  0
    6.2140    0.4918    1.4380 H   0  0  0  0  0  0  0  0  0  0  0  0
    7.5061    0.3757   -1.1541 H   0  0  0  0  0  0  0  0  0  0  0  0
    6.4946   -0.7527   -2.0760 H   0  0  0  0  0  0  0  0  0  0  0  0
    5.7514    0.5201   -1.0983 H   0  0  0  0  0  0  0  0  0  0  0  0
   -0.0529   -2.9765   -1.0368 H   0  0  0  0  0  0  0  0  0  0  0  0
    0.2214   -2.8090    0.7201 H   0  0  0  0  0  0  0  0  0  0  0  0
   -0.1921   -0.3663    0.5585 H   0  0  0  0  0  0  0  0  0  0  0  0
   -1.5821   -1.2721   -0.0639 H   0  0  0  0  0  0  0  0  0  0  0  0
   -3.8617   -0.2235   -0.7611 H   0  0  0  0  0  0  0  0  0  0  0  0
   -4.0671   -0.0847   -2.5207 H   0  0  0  0  0  0  0  0  0  0  0  0
   -2.7586   -1.0551   -1.8820 H   0  0  0  0  0  0  0  0  0  0  0  0
   -2.6239    6.1522    1.6054 H   0  0  0  0  0  0  0  0  0  0  0  0
   -2.4681    5.5162    3.2448 H   0  0  0  0  0  0  0  0  0  0  0  0
   -0.2344    5.6115    2.6295 H   0  0  0  0  0  0  0  0  0  0  0  0
   -0.7191    3.2452    3.1704 H   0  0  0  0  0  0  0  0  0  0  0  0
   -1.0559    2.9267    1.4313 H   0  0  0  0  0  0  0  0  0  0  0  0
    2.3833    3.6786    0.4577 H   0  0  0  0  0  0  0  0  0  0  0  0
    0.8001    3.1481   -0.1746 H   0  0  0  0  0  0  0  0  0  0  0  0
    1.4369    5.8603    1.0886 H   0  0  0  0  0  0  0  0  0  0  0  0
    1.0651    5.5278   -0.6311 H   0  0  0  0  0  0  0  0  0  0  0  0
   -7.0884    4.7613    2.8749 H   0  0  0  0  0  0  0  0  0  0  0  0
   -7.3899    3.0318    3.2251 H   0  0  0  0  0  0  0  0  0  0  0  0
   -5.8501    5.0093    4.9794 H   0  0  0  0  0  0  0  0  0  0  0  0
   -7.4231    4.3002    5.3657 H   0  0  0  0  0  0  0  0  0  0  0  0
   -6.4336    2.0479    5.4785 H   0  0  0  0  0  0  0  0  0  0  0  0
   -5.4986    3.1172    6.5266 H   0  0  0  0  0  0  0  0  0  0  0  0
    4.3194    0.4330    2.9444 H   0  0  0  0  0  0  0  0  0  0  0  0
    3.4415    2.5515    2.0990 H   0  0  0  0  0  0  0  0  0  0  0  0
   -0.5837    1.1357    2.5405 H   0  0  0  0  0  0  0  0  0  0  0  0
  1  2  1  0  0  0  0
  2  3  1  0  0  0  0
  3  4  1  0  0  0  0
  2  5  1  0  0  0  0
  5  6  4  0  0  0  0
  6  7  4  0  0  0  0
  7  8  4  0  0  0  0
  8  9  4  0  0  0  0
  5 10  4  0  0  0  0
  9 10  4  0  0  0  0
 10 11  1  0  0  0  0
 11 12  1  0  0  0  0
 12 13  1  0  0  0  0
 13 14  1  0  0  0  0
 11 15  2  0  0  0  0
 15 16  1  0  0  0  0
 16 17  1  0  0  0  0
 17 18  1  0  0  0  0
 17 19  1  0  0  0  0
 17 20  1  0  0  0  0
 20 21  1  0  0  0  0
 21 22  1  0  0  0  0
 22 23  1  0  0  0  0
 23 24  1  0  0  0  0
 24 25  1  0  0  0  0
 25 26  4  0  0  0  0
 26 27  1  0  0  0  0
 27 28  1  0  0  0  0
 28 29  4  0  0  0  0
 29 30  1  0  0  0  0
 30 31  1  0  0  0  0
 31 32  1  0  0  0  0
 31 33  1  0  0  0  0
 30 34  1  0  0  0  0
 34 35  4  0  0  0  0
 35 36  1  0  0  0  0
 36 37  1  0  0  0  0
 37 38  1  0  0  0  0
 38 39  1  0  0  0  0
 39 40  4  0  0  0  0
 40 41  1  0  0  0  0
 41 42  3  0  0  0  0
 42 43  1  0  0  0  0
 43 44  1  0  0  0  0
 44 45  1  0  0  0  0
 44 46  1  0  0  0  0
 43 47  1  0  0  0  0
 43 48  1  0  0  0  0
 40 49  2  0  0  0  0
 39 50  1  0  0  0  0
 36 51  1  0  0  0  0
 50 51  1  0  0  0  0
 35 52  2  0  0  0  0
 34 53  1  0  0  0  0
 29 54  2  0  0  0  0
 27 55  1  0  0  0  0
 55 56  1  0  0  0  0
 56 57  1  0  0  0  0
 57 58  1  0  0  0  0
 58 59  1  0  0  0  0
 59 60  1  0  0  0  0
 56 61  1  0  0  0  0
 60 61  1  0  0  0  0
 26 62  2  0  0  0  0
 25 63  1  0  0  0  0
 63 64  1  0  0  0  0
 23 65  1  0  0  0  0
 64 65  1  0  0  0  0
 22 66  2  0  0  0  0
 15 67  4  0  0  0  0
 12 68  1  0  0  0  0
 67 68  4  0  0  0  0
 68 69  4  0  0  0  0
 69 70  2  0  0  0  0
 58 71  1  0  0  0  0
 70 71  4  0  0  0  0
 67 72  4  0  0  0  0
 71 72  4  0  0  0  0
 36 73  1  0  0  0  0
  1 74  1  0  0  0  0
  1 75  1  0  0  0  0
  1 76  1  0  0  0  0
  2 77  1  0  0  0  0
  4 78  1  0  0  0  0
  4 79  1  0  0  0  0
  4 80  1  0  0  0  0
  7 81  1  0  0  0  0
  8 82  1  0  0  0  0
  9 83  1  0  0  0  0
 13 84  1  0  0  0  0
 13 85  1  0  0  0  0
 14 86  1  0  0  0  0
 14 87  1  0  0  0  0
 14 88  1  0  0  0  0
 16 89  1  0  0  0  0
 16 90  1  0  0  0  0
 18 91  1  0  0  0  0
 18 92  1  0  0  0  0
 18 93  1  0  0  0  0
 19 94  1  0  0  0  0
 19 95  1  0  0  0  0
 19 96  1  0  0  0  0
 20 97  1  0  0  0  0
 20 98  1  0  0  0  0
 23 99  1  0  0  0  0
 24100  1  0  0  0  0
 27101  1  0  0  0  0
 28102  1  0  0  0  0
 30103  1  0  0  0  0
 31104  1  0  0  0  0
 32105  1  0  0  0  0
 32106  1  0  0  0  0
 32107  1  0  0  0  0
 33108  1  0  0  0  0
 33109  1  0  0  0  0
 33110  1  0  0  0  0
 37111  1  0  0  0  0
 37112  1  0  0  0  0
 38113  1  0  0  0  0
 38114  1  0  0  0  0
 45115  1  0  0  0  0
 45116  1  0  0  0  0
 45117  1  0  0  0  0
 46118  1  0  0  0  0
 46119  1  0  0  0  0
 46120  1  0  0  0  0
 47121  1  0  0  0  0
 47122  1  0  0  0  0
 47123  1  0  0  0  0
 48124  1  0  0  0  0
 48125  1  0  0  0  0
 48126  1  0  0  0  0
 50127  1  0  0  0  0
 50128  1  0  0  0  0
 51129  1  0  0  0  0
 51130  1  0  0  0  0
 53131  1  0  0  0  0
 53132  1  0  0  0  0
 53133  1  0  0  0  0
 55134  1  0  0  0  0
 55135  1  0  0  0  0
 56136  1  0  0  0  0
 57137  1  0  0  0  0
 57138  1  0  0  0  0
 59139  1  0  0  0  0
 59140  1  0  0  0  0
 60141  1  0  0  0  0
 60142  1  0  0  0  0
 63143  1  0  0  0  0
 63144  1  0  0  0  0
 64145  1  0  0  0  0
 64146  1  0  0  0  0
 65147  1  0  0  0  0
 65148  1  0  0  0  0
 69149  1  0  0  0  0
 70150  1  0  0  0  0
 72151  1  0  0  0  0
M  END
$$$$
