obj09
     RDKit          3D

151157  0  0  0  0  0  0  0  0999 V2000
   17.6652   22.7001   62.5944 C   0  0  0  0  0  0  0  0  0  0  0  0
   16.9646   23.8595   61.8757 C   0  0  2  0  0  0  0  0  0  0  0  0
   17.1339   25.0667   62.6362 O   0  0  0  0  0  0  0  0  0  0  0  0
   18.3649   25.7251   62.3603 C   0  0  0  0  0  0  0  0  0  0  0  0
   15.4734   23.5899   61.6848 C   0  0  0  0  0  0  0  0  0  0  0  0
   14.8658   22.7887   62.6116 N   0  0  0  0  0  0  0  0  0  0  0  0
   13.5521   22.5233   62.4635 C   0  0  0  0  0  0  0  0  0  0  0  0
   12.7871   23.0004   61.4190 C   0  0  0  0  0  0  0  0  0  0  0  0
   13.4056   23.8132   60.4767 C   0  0  0  0  0  0  0  0  0  0  0  0
   14.7615   24.1392   60.6030 C   0  0  0  0  0  0  0  0  0  0  0  0
   15.3761   25.0186   59.5997 C   0  0  0  0  0  0  0  0  0  0  0  0
   15.8365   24.5691   58.3788 N   0  0  0  0  0  0  0  0  0  0  0  0
   15.7499   23.1979   57.8869 C   0  0  0  0  0  0  0  0  0  0  0  0
   14.5857   22.9969   56.9327 C   0  0  0  0  0  0  0  0  0  0  0  0
   15.6331   26.3891   59.6688 C   0  0  0  0  0  0  0  0  0  0  0  0
   15.2777   27.2927   60.8263 C   0  0  0  0  0  0  0  0  0  0  0  0
   13.9554   28.1108   60.7102 C   0  0  0  0  0  0  0  0  0  0  0  0
   12.7597   27.2509   60.2754 C   0  0  0  0  0  0  0  0  0  0  0  0
   13.6381   28.6765   62.1165 C   0  0  0  0  0  0  0  0  0  0  0  0
   14.0956   29.2884   59.7228 C   0  0  0  0  0  0  0  0  0  0  0  0
   15.1192   30.1793   60.1912 O   0  0  0  0  0  0  0  0  0  0  0  0
   15.3952   31.2261   59.3674 C   0  0  0  0  0  0  0  0  0  0  0  0
   16.5647   32.0349   59.9299 C   0  0  1  0  0  0  0  0  0  0  0  0
   16.7501   33.2472   59.1197 N   0  0  0  0  0  0  0  0  0  0  0  0
   17.9116   33.9372   59.5149 N   0  0  0  0  0  0  0  0  0  0  0  0
   18.9912   34.2399   58.6830 C   0  0  0  0  0  0  0  0  0  0  0  0
   19.0484   33.5871   57.2735 C   0  0  1  0  0  0  0  0  0  0  0  0
   19.5383   34.5851   56.3232 N   0  0  0  0  0  0  0  0  0  0  0  0
   18.7741   35.7075   56.0658 C   0  0  0  0  0  0  0  0  0  0  0  0
   19.3709   36.6457   54.9964 C   0  0  2  0  0  0  0  0  0  0  0  0
   19.1166   38.1389   55.3367 C   0  0  0  0  0  0  0  0  0  0  0  0
   19.6339   39.0641   54.2290 C   0  0  0  0  0  0  0  0  0  0  0  0
   19.8093   38.5157   56.6547 C   0  0  0  0  0  0  0  0  0  0  0  0
   18.8576   36.2314   53.6659 N   0  0  0  0  0  0  0  0  0  0  0  0
   19.6416   35.3242   52.9494 C   0  0  0  0  0  0  0  0  0  0  0  0
   19.3010   35.0445   51.4647 C   0  0  0  0  0  0  0  0  0  0  0  0
   19.3018   36.3583   50.6586 C   0  0  0  0  0  0  0  0  0  0  0  0
   19.1242   36.0769   49.1721 C   0  0  0  0  0  0  0  0  0  0  0  0
   20.1722   35.1716   48.7316 N   0  0  0  0  0  0  0  0  0  0  0  0
   21.2947   35.7167   48.1137 C   0  0  0  0  0  0  0  0  0  0  0  0
   22.4621   34.8852   47.9233 C   0  0  0  0  0  0  0  0  0  0  0  0
   23.4640   34.2378   47.7740 C   0  0  0  0  0  0  0  0  0  0  0  0
   24.7180   33.4720   47.5817 C   0  0  0  0  0  0  0  0  0  0  0  0
   25.8485   34.0231   48.3790 N   0  0  0  0  0  0  0  0  0  0  0  0
   25.6599   33.9590   49.8295 C   0  0  0  0  0  0  0  0  0  0  0  0
   26.2400   35.3872   48.0001 C   0  0  0  0  0  0  0  0  0  0  0  0
   25.0661   33.4735   46.0748 C   0  0  0  0  0  0  0  0  0  0  0  0
   24.4522   31.9976   47.9695 C   0  0  0  0  0  0  0  0  0  0  0  0
   21.3613   36.8822   47.7384 O   0  0  0  0  0  0  0  0  0  0  0  0
   20.1428   33.8668   49.3813 C   0  0  0  0  0  0  0  0  0  0  0  0
   20.3208   34.0409   50.8837 C   0  0  0  0  0  0  0  0  0  0  0  0
   20.6299   34.8015   53.4796 O   0  0  0  0  0  0  0  0  0  0  0  0
   17.4214   36.3872   53.4274 C   0  0  0  0  0  0  0  0  0  0  0  0
   17.6821   35.9076   56.5953 O   0  0  0  0  0  0  0  0  0  0  0  0
   20.0049   32.3822   57.3691 C   0  0  0  0  0  0  0  0  0  0  0  0
   19.6326   31.1812   56.4892 C   0  0  1  0  0  0  0  0  0  0  0  0
   18.5750   30.2652   57.1598 C   0  0  0  0  0  0  0  0  0  0  0  0
   18.2991   29.1215   56.2713 N   0  0  0  0  0  0  0  0  0  0  0  0
   17.8621   29.5692   54.9255 C   0  0  0  0  0  0  0  0  0  0  0  0
   18.9101   30.5320   54.3361 C   0  0  0  0  0  0  0  0  0  0  0  0
   19.1775   31.6449   55.2056 O   0  0  0  0  0  0  0  0  0  0  0  0
   19.9349   34.9363   59.0829 O   0  0  0  0  0  0  0  0  0  0  0  0
   17.8294   34.4830   60.8725 C   0  0  0  0  0  0  0  0  0  0  0  0
   17.5119   33.3600   61.8659 C   0  0  0  0  0  0  0  0  0  0  0  0
   16.3509   32.4774   61.3837 C   0  0  0  0  0  0  0  0  0  0  0  0
   14.8647   31.4220   58.2819 O   0  0  0  0  0  0  0  0  0  0  0  0
   16.3747   26.7396   58.4867 C   0  0  0  0  0  0  0  0  0  0  0  0
   16.4604   25.5952   57.6962 C   0  0  0  0  0  0  0  0  0  0  0  0
   17.1089   25.6025   56.4553 C   0  0  0  0  0  0  0  0  0  0  0  0
   17.6929   26.7977   56.0209 C   0  0  0  0  0  0  0  0  0  0  0  0
   17.6518   27.9822   56.7673 C   0  0  0  0  0  0  0  0  0  0  0  0
   16.9990   27.9274   58.0140 C   0  0  0  0  0  0  0  0  0  0  0  0
   18.0641   34.4646   51.3386 F   0  0  0  0  0  0  0  0  0  0  0  0
   17.3497   22.6323   63.6431 H   0  0  0  0  0  0  0  0  0  0  0  0
   17.4638   21.7421   62.1019 H   0  0  0  0  0  0  0  0  0  0  0  0
   18.7509   22.8480   62.6088 H   0  0  0  0  0  0  0  0  0  0  0  0
   17.4335   23.9606   60.8882 H   0  0  0  0  0  0  0  0  0  0  0  0
   19.2166   25.0770   62.5808 H   0  0  0  0  0  0  0  0  0  0  0  0
   18.4025   26.0480   61.3152 H   0  0  0  0  0  0  0  0  0  0  0  0
   18.4286   26.6067   63.0023 H   0  0  0  0  0  0  0  0  0  0  0  0
   13.1185   21.8922   63.2333 H   0  0  0  0  0  0  0  0  0  0  0  0
   11.7344   22.7553   61.3436 H   0  0  0  0  0  0  0  0  0  0  0  0
   12.8219   24.2092   59.6498 H   0  0  0  0  0  0  0  0  0  0  0  0
   16.7002   22.9588   57.3958 H   0  0  0  0  0  0  0  0  0  0  0  0
   15.6644   22.5206   58.7421 H   0  0  0  0  0  0  0  0  0  0  0  0
   13.6314   23.2463   57.4068 H   0  0  0  0  0  0  0  0  0  0  0  0
   14.6877   23.6266   56.0427 H   0  0  0  0  0  0  0  0  0  0  0  0
   14.5403   21.9536   56.6054 H   0  0  0  0  0  0  0  0  0  0  0  0
   15.2128   26.6747   61.7303 H   0  0  0  0  0  0  0  0  0  0  0  0
   16.1218   27.9702   61.0103 H   0  0  0  0  0  0  0  0  0  0  0  0
   12.5810   26.4391   60.9871 H   0  0  0  0  0  0  0  0  0  0  0  0
   11.8401   27.8477   60.2345 H   0  0  0  0  0  0  0  0  0  0  0  0
   12.9052   26.8212   59.2802 H   0  0  0  0  0  0  0  0  0  0  0  0
   14.4678   29.2739   62.5099 H   0  0  0  0  0  0  0  0  0  0  0  0
   12.7469   29.3157   62.0941 H   0  0  0  0  0  0  0  0  0  0  0  0
   13.4458   27.8689   62.8320 H   0  0  0  0  0  0  0  0  0  0  0  0
   14.3415   28.9275   58.7179 H   0  0  0  0  0  0  0  0  0  0  0  0
   13.1534   29.8480   59.6648 H   0  0  0  0  0  0  0  0  0  0  0  0
   17.4558   31.3993   59.8457 H   0  0  0  0  0  0  0  0  0  0  0  0
   16.6461   33.0767   58.1209 H   0  0  0  0  0  0  0  0  0  0  0  0
   18.0613   33.2860   56.9222 H   0  0  0  0  0  0  0  0  0  0  0  0
   20.1176   34.2674   55.5458 H   0  0  0  0  0  0  0  0  0  0  0  0
   20.4617   36.5076   55.0067 H   0  0  0  0  0  0  0  0  0  0  0  0
   18.0427   38.3228   55.4641 H   0  0  0  0  0  0  0  0  0  0  0  0
   19.4997   40.1166   54.5078 H   0  0  0  0  0  0  0  0  0  0  0  0
   20.7012   38.9004   54.0409 H   0  0  0  0  0  0  0  0  0  0  0  0
   19.0973   38.9063   53.2895 H   0  0  0  0  0  0  0  0  0  0  0  0
   19.3932   37.9571   57.4993 H   0  0  0  0  0  0  0  0  0  0  0  0
   20.8857   38.3093   56.6107 H   0  0  0  0  0  0  0  0  0  0  0  0
   19.6822   39.5835   56.8735 H   0  0  0  0  0  0  0  0  0  0  0  0
   18.4969   37.0263   50.9775 H   0  0  0  0  0  0  0  0  0  0  0  0
   20.2464   36.8918   50.8272 H   0  0  0  0  0  0  0  0  0  0  0  0
   18.1556   35.6027   48.9756 H   0  0  0  0  0  0  0  0  0  0  0  0
   19.1484   37.0153   48.6078 H   0  0  0  0  0  0  0  0  0  0  0  0
   26.5529   34.3311   50.3486 H   0  0  0  0  0  0  0  0  0  0  0  0
   24.8055   34.5530   50.1712 H   0  0  0  0  0  0  0  0  0  0  0  0
   25.5365   32.9299   50.1774 H   0  0  0  0  0  0  0  0  0  0  0  0
   27.0772   35.7331   48.6189 H   0  0  0  0  0  0  0  0  0  0  0  0
   26.6126   35.4250   46.9704 H   0  0  0  0  0  0  0  0  0  0  0  0
   25.4246   36.1114   48.1109 H   0  0  0  0  0  0  0  0  0  0  0  0
   26.0177   32.9638   45.8847 H   0  0  0  0  0  0  0  0  0  0  0  0
   24.2946   32.9536   45.4903 H   0  0  0  0  0  0  0  0  0  0  0  0
   25.1270   34.4857   45.6604 H   0  0  0  0  0  0  0  0  0  0  0  0
   24.0282   31.8998   48.9759 H   0  0  0  0  0  0  0  0  0  0  0  0
   23.7252   31.5320   47.2900 H   0  0  0  0  0  0  0  0  0  0  0  0
   25.3700   31.4011   47.9242 H   0  0  0  0  0  0  0  0  0  0  0  0
   19.1737   33.4052   49.1591 H   0  0  0  0  0  0  0  0  0  0  0  0
   20.9147   33.2044   48.9805 H   0  0  0  0  0  0  0  0  0  0  0  0
   21.3436   34.3876   51.0811 H   0  0  0  0  0  0  0  0  0  0  0  0
   20.2031   33.0656   51.3717 H   0  0  0  0  0  0  0  0  0  0  0  0
   16.8689   35.7325   54.1081 H   0  0  0  0  0  0  0  0  0  0  0  0
   17.1272   37.4264   53.5965 H   0  0  0  0  0  0  0  0  0  0  0  0
   17.1266   36.1182   52.4137 H   0  0  0  0  0  0  0  0  0  0  0  0
   21.0095   32.7146   57.0701 H   0  0  0  0  0  0  0  0  0  0  0  0
   20.1044   32.0338   58.4053 H   0  0  0  0  0  0  0  0  0  0  0  0
   20.5478   30.5921   56.3314 H   0  0  0  0  0  0  0  0  0  0  0  0
   18.9682   29.9203   58.1236 H   0  0  0  0  0  0  0  0  0  0  0  0
   17.6474   30.8243   57.3270 H   0  0  0  0  0  0  0  0  0  0  0  0
   17.7325   28.7396   54.2235 H   0  0  0  0  0  0  0  0  0  0  0  0
   16.8992   30.0876   55.0196 H   0  0  0  0  0  0  0  0  0  0  0  0
   19.8514   30.0058   54.1366 H   0  0  0  0  0  0  0  0  0  0  0  0
   18.5473   30.9352   53.3856 H   0  0  0  0  0  0  0  0  0  0  0  0
   18.7604   34.9827   61.1562 H   0  0  0  0  0  0  0  0  0  0  0  0
   17.0335   35.2378   60.8790 H   0  0  0  0  0  0  0  0  0  0  0  0
   18.4029   32.7291   61.9816 H   0  0  0  0  0  0  0  0  0  0  0  0
   17.2856   33.7826   62.8519 H   0  0  0  0  0  0  0  0  0  0  0  0
   15.4076   33.0329   61.4742 H   0  0  0  0  0  0  0  0  0  0  0  0
   16.2630   31.6065   62.0436 H   0  0  0  0  0  0  0  0  0  0  0  0
   17.1840   24.7100   55.8433 H   0  0  0  0  0  0  0  0  0  0  0  0
   18.2338   26.7742   55.0776 H   0  0  0  0  0  0  0  0  0  0  0  0
   16.9487   28.8060   58.6433 H   0  0  0  0  0  0  0  0  0  0  0  0
  1  2  1  0
  2  3  1  0
  2  5  1  0
  3  4  1  0
  5  6  2  0
  5 10  1  0
  6  7  1  0
  7  8  2  0
  8  9  1  0
  9 10  2  0
 10 11  1  0
 11 12  1  0
 11 15  2  0
 12 13  1  0
 12 68  1  0
 13 14  1  0
 15 16  1  0
 15 67  1  0
 16 17  1  0
 17 18  1  0
 17 19  1  0
 17 20  1  0
 20 21  1  0
 21 22  1  0
 22 23  1  0
 22 66  2  0
 23 24  1  0
 23 65  1  0
 24 25  1  0
 25 26  1  0
 25 63  1  0
 26 27  1  0
 26 62  2  0
 27 28  1  0
 27 55  1  0
 28 29  1  0
 29 30  1  0
 29 54  2  0
 30 31  1  0
 30 34  1  0
 31 32  1  0
 31 33  1  0
 34 35  1  0
 34 53  1  0
 35 36  1  0
 35 52  2  0
 36 37  1  0
 36 51  1  0
 36 73  1  0
 37 38  1  0
 38 39  1  0
 39 40  1  0
 39 50  1  0
 40 41  1  0
 40 49  2  0
 42 43  1  0
 43 44  1  0
 43 47  1  0
 43 48  1  0
 44 45  1  0
 44 46  1  0
 50 51  1  0
 55 56  1  0
 56 57  1  0
 56 61  1  0
 57 58  1  0
 58 59  1  0
 58 71  1  0
 59 60  1  0
 60 61  1  0
 63 64  1  0
 64 65  1  0
 67 68  2  0
 67 72  1  0
 68 69  1  0
 69 70  2  0
 70 71  1  0
 71 72  2  0
  1 74  1  0
  1 75  1  0
  1 76  1  0
  2 77  1  6
  4 78  1  0
  4 79  1  0
  4 80  1  0
  7 81  1  0
  8 82  1  0
  9 83  1  0
 13 84  1  0
 13 85  1  0
 14 86  1  0
 14 87  1  0
 14 88  1  0
 16 89  1  0
 16 90  1  0
 18 91  1  0
 18 92  1  0
 18 93  1  0
 19 94  1  0
 19 95  1  0
 19 96  1  0
 20 97  1  0
 20 98  1  0
 23 99  1  1
 24100  1  0
 27101  1  6
 28102  1  0
 30103  1  6
 31104  1  0
 32105  1  0
 32106  1  0
 32107  1  0
 33108  1  0
 33109  1  0
 33110  1  0
 37111  1  0
 37112  1  0
 38113  1  0
 38114  1  0
 45115  1  0
 45116  1  0
 45117  1  0
 46118  1  0
 46119  1  0
 46120  1  0
 47121  1  0
 47122  1  0
 47123  1  0
 48124  1  0
 48125  1  0
 48126  1  0
 50127  1  0
 50128  1  0
 51129  1  0
 51130  1  0
 53131  1  0
 53132  1  0
 53133  1  0
 55134  1  0
 55135  1  0
 56136  1  6
 57137  1  0
 57138  1  0
 59139  1  0
 59140  1  0
 60141  1  0
 60142  1  0
 63143  1  0
 63144  1  0
 64145  1  0
 64146  1  0
 65147  1  0
 65148  1  0
 69149  1  0
 70150  1  0
 72151  1  0
 41 42  3  0
M  END
$$$$
