 xtb: 6.7.1 (edcfbbe)
          08072517533D

151157  0     0  0            999 V2000
   17.4030   22.7873   61.8389 C   0  0  0  0  0  0  0  0  0  0  0  0
   16.7940   24.0316   61.1950 C   0  0  0  0  0  0  0  0  0  0  0  0
   16.9796   25.1957   61.9876 O   0  0  0  0  0  0  0  0  0  0  0  0
   18.2422   25.7938   61.8586 C   0  0  0  0  0  0  0  0  0  0  0  0
   15.2966   23.8777   61.0104 C   0  0  0  0  0  0  0  0  0  0  0  0
   14.6729   23.0412   61.8217 N   0  0  0  0  0  0  0  0  0  0  0  0
   13.3697   22.8711   61.7000 C   0  0  0  0  0  0  0  0  0  0  0  0
   12.6089   23.5157   60.7381 C   0  0  0  0  0  0  0  0  0  0  0  0
   13.2538   24.3905   59.8809 C   0  0  0  0  0  0  0  0  0  0  0  0
   14.6226   24.6021   60.0166 C   0  0  0  0  0  0  0  0  0  0  0  0
   15.3431   25.5179   59.1199 C   0  0  0  0  0  0  0  0  0  0  0  0
   15.7495   25.0884   57.8757 N   0  0  0  0  0  0  0  0  0  0  0  0
   15.4973   23.7961   57.2975 C   0  0  0  0  0  0  0  0  0  0  0  0
   14.3176   23.8244   56.3261 C   0  0  0  0  0  0  0  0  0  0  0  0
   15.7588   26.8095   59.3389 C   0  0  0  0  0  0  0  0  0  0  0  0
   15.5147   27.6189   60.5716 C   0  0  0  0  0  0  0  0  0  0  0  0
   14.2771   28.5453   60.5281 C   0  0  0  0  0  0  0  0  0  0  0  0
   13.0472   27.7984   60.0156 C   0  0  0  0  0  0  0  0  0  0  0  0
   14.0038   29.0630   61.9424 C   0  0  0  0  0  0  0  0  0  0  0  0
   14.5300   29.7360   59.5979 C   0  0  0  0  0  0  0  0  0  0  0  0
   15.5781   30.5496   60.1351 O   0  0  0  0  0  0  0  0  0  0  0  0
   15.9434   31.6000   59.4145 C   0  0  0  0  0  0  0  0  0  0  0  0
   17.0856   32.3615   60.0716 C   0  0  0  0  0  0  0  0  0  0  0  0
   17.1394   33.7293   59.5872 N   0  0  0  0  0  0  0  0  0  0  0  0
   18.3719   34.2928   59.9240 N   0  0  0  0  0  0  0  0  0  0  0  0
   19.5165   34.1705   59.2129 C   0  0  0  0  0  0  0  0  0  0  0  0
   19.3839   33.5541   57.8059 C   0  0  0  0  0  0  0  0  0  0  0  0
   19.4780   34.6087   56.8208 N   0  0  0  0  0  0  0  0  0  0  0  0
   18.3870   35.2847   56.4412 C   0  0  0  0  0  0  0  0  0  0  0  0
   18.6538   36.2953   55.3234 C   0  0  0  0  0  0  0  0  0  0  0  0
   17.7977   37.5600   55.4550 C   0  0  0  0  0  0  0  0  0  0  0  0
   18.0985   38.5279   54.3133 C   0  0  0  0  0  0  0  0  0  0  0  0
   18.1025   38.2206   56.7988 C   0  0  0  0  0  0  0  0  0  0  0  0
   18.4532   35.5771   54.0624 N   0  0  0  0  0  0  0  0  0  0  0  0
   19.5619   35.1030   53.4663 C   0  0  0  0  0  0  0  0  0  0  0  0
   19.4576   34.4513   52.0724 C   0  0  0  0  0  0  0  0  0  0  0  0
   19.0639   35.5039   51.0317 C   0  0  0  0  0  0  0  0  0  0  0  0
   19.0778   34.8919   49.6288 C   0  0  0  0  0  0  0  0  0  0  0  0
   20.3561   34.2847   49.3514 N   0  0  0  0  0  0  0  0  0  0  0  0
   21.1422   34.7753   48.3603 C   0  0  0  0  0  0  0  0  0  0  0  0
   22.4006   34.0912   48.1875 C   0  0  0  0  0  0  0  0  0  0  0  0
   23.4501   33.5855   47.8817 C   0  0  0  0  0  0  0  0  0  0  0  0
   24.7823   33.0235   47.6632 C   0  0  0  0  0  0  0  0  0  0  0  0
   25.8052   33.8185   48.3635 N   0  0  0  0  0  0  0  0  0  0  0  0
   25.6318   33.8542   49.8038 C   0  0  0  0  0  0  0  0  0  0  0  0
   25.9510   35.1672   47.8443 C   0  0  0  0  0  0  0  0  0  0  0  0
   25.0669   33.0053   46.1533 C   0  0  0  0  0  0  0  0  0  0  0  0
   24.8074   31.5736   48.1756 C   0  0  0  0  0  0  0  0  0  0  0  0
   20.8136   35.7078   47.6489 O   0  0  0  0  0  0  0  0  0  0  0  0
   20.7364   33.2497   50.2786 C   0  0  0  0  0  0  0  0  0  0  0  0
   20.7963   33.8111   51.7006 C   0  0  0  0  0  0  0  0  0  0  0  0
   20.6742   35.2730   53.9456 O   0  0  0  0  0  0  0  0  0  0  0  0
   17.0771   35.2744   53.7322 C   0  0  0  0  0  0  0  0  0  0  0  0
   17.2763   35.0772   56.9022 O   0  0  0  0  0  0  0  0  0  0  0  0
   20.4608   32.4886   57.5995 C   0  0  0  0  0  0  0  0  0  0  0  0
   20.0318   31.4131   56.5976 C   0  0  0  0  0  0  0  0  0  0  0  0
   18.9196   30.5100   57.1573 C   0  0  0  0  0  0  0  0  0  0  0  0
   18.5594   29.5296   56.1560 N   0  0  0  0  0  0  0  0  0  0  0  0
   18.1062   30.2072   54.9522 C   0  0  0  0  0  0  0  0  0  0  0  0
   19.2330   31.1004   54.4388 C   0  0  0  0  0  0  0  0  0  0  0  0
   19.6170   32.0487   55.4062 O   0  0  0  0  0  0  0  0  0  0  0  0
   20.5860   34.5751   59.6303 O   0  0  0  0  0  0  0  0  0  0  0  0
   18.4092   34.5494   61.3522 C   0  0  0  0  0  0  0  0  0  0  0  0
   18.2471   33.2198   62.1002 C   0  0  0  0  0  0  0  0  0  0  0  0
   17.0144   32.4593   61.5998 C   0  0  0  0  0  0  0  0  0  0  0  0
   15.4842   31.8863   58.3396 O   0  0  0  0  0  0  0  0  0  0  0  0
   16.4803   27.2006   58.1691 C   0  0  0  0  0  0  0  0  0  0  0  0
   16.4397   26.1057   57.2753 C   0  0  0  0  0  0  0  0  0  0  0  0
   17.0617   26.1672   56.0338 C   0  0  0  0  0  0  0  0  0  0  0  0
   17.7269   27.3225   55.7012 C   0  0  0  0  0  0  0  0  0  0  0  0
   17.7940   28.4243   56.5758 C   0  0  0  0  0  0  0  0  0  0  0  0
   17.1751   28.3585   57.8122 C   0  0  0  0  0  0  0  0  0  0  0  0
   18.5031   33.4307   52.0565 F   0  0  0  0  0  0  0  0  0  0  0  0
   16.9557   22.6362   62.8160 H   0  0  0  0  0  0  0  0  0  0  0  0
   17.2000   21.9181   61.2200 H   0  0  0  0  0  0  0  0  0  0  0  0
   18.4788   22.9011   61.9452 H   0  0  0  0  0  0  0  0  0  0  0  0
   17.2528   24.2009   60.2054 H   0  0  0  0  0  0  0  0  0  0  0  0
   19.0465   25.1437   62.2196 H   0  0  0  0  0  0  0  0  0  0  0  0
   18.4452   26.0661   60.8147 H   0  0  0  0  0  0  0  0  0  0  0  0
   18.2135   26.6949   62.4683 H   0  0  0  0  0  0  0  0  0  0  0  0
   12.9240   22.1770   62.4004 H   0  0  0  0  0  0  0  0  0  0  0  0
   11.5478   23.3379   60.6581 H   0  0  0  0  0  0  0  0  0  0  0  0
   12.7027   24.9115   59.1110 H   0  0  0  0  0  0  0  0  0  0  0  0
   16.4000   23.4702   56.7706 H   0  0  0  0  0  0  0  0  0  0  0  0
   15.2973   23.0875   58.1067 H   0  0  0  0  0  0  0  0  0  0  0  0
   13.4030   24.0961   56.8469 H   0  0  0  0  0  0  0  0  0  0  0  0
   14.4959   24.5526   55.5388 H   0  0  0  0  0  0  0  0  0  0  0  0
   14.1826   22.8449   55.8754 H   0  0  0  0  0  0  0  0  0  0  0  0
   15.3975   26.9315   61.4112 H   0  0  0  0  0  0  0  0  0  0  0  0
   16.3895   28.2425   60.7672 H   0  0  0  0  0  0  0  0  0  0  0  0
   12.8533   26.9338   60.6447 H   0  0  0  0  0  0  0  0  0  0  0  0
   12.1725   28.4450   60.0368 H   0  0  0  0  0  0  0  0  0  0  0  0
   13.2027   27.4629   58.9931 H   0  0  0  0  0  0  0  0  0  0  0  0
   14.8737   29.5859   62.3299 H   0  0  0  0  0  0  0  0  0  0  0  0
   13.1612   29.7512   61.9402 H   0  0  0  0  0  0  0  0  0  0  0  0
   13.7720   28.2345   62.6070 H   0  0  0  0  0  0  0  0  0  0  0  0
   14.8152   29.3984   58.5964 H   0  0  0  0  0  0  0  0  0  0  0  0
   13.6299   30.3536   59.5045 H   0  0  0  0  0  0  0  0  0  0  0  0
   18.0045   31.7971   59.8052 H   0  0  0  0  0  0  0  0  0  0  0  0
   16.8835   33.8752   58.6123 H   0  0  0  0  0  0  0  0  0  0  0  0
   18.3942   33.1098   57.6769 H   0  0  0  0  0  0  0  0  0  0  0  0
   20.3593   34.7554   56.3518 H   0  0  0  0  0  0  0  0  0  0  0  0
   19.7088   36.5851   55.3455 H   0  0  0  0  0  0  0  0  0  0  0  0
   16.7402   37.2849   55.4432 H   0  0  0  0  0  0  0  0  0  0  0  0
   17.4863   39.4213   54.4083 H   0  0  0  0  0  0  0  0  0  0  0  0
   19.1450   38.8247   54.3404 H   0  0  0  0  0  0  0  0  0  0  0  0
   17.9005   38.0789   53.3433 H   0  0  0  0  0  0  0  0  0  0  0  0
   17.8485   37.5546   57.6189 H   0  0  0  0  0  0  0  0  0  0  0  0
   19.1583   38.4738   56.8712 H   0  0  0  0  0  0  0  0  0  0  0  0
   17.5213   39.1331   56.9060 H   0  0  0  0  0  0  0  0  0  0  0  0
   18.0691   35.8936   51.2463 H   0  0  0  0  0  0  0  0  0  0  0  0
   19.7825   36.3228   51.0904 H   0  0  0  0  0  0  0  0  0  0  0  0
   18.2954   34.1270   49.5572 H   0  0  0  0  0  0  0  0  0  0  0  0
   18.9025   35.6607   48.8736 H   0  0  0  0  0  0  0  0  0  0  0  0
   26.4523   34.4290   50.2310 H   0  0  0  0  0  0  0  0  0  0  0  0
   24.6845   34.3205   50.1132 H   0  0  0  0  0  0  0  0  0  0  0  0
   25.6825   32.8495   50.2151 H   0  0  0  0  0  0  0  0  0  0  0  0
   26.7066   35.6805   48.4372 H   0  0  0  0  0  0  0  0  0  0  0  0
   26.3012   35.1371   46.8159 H   0  0  0  0  0  0  0  0  0  0  0  0
   25.0192   35.7486   47.8901 H   0  0  0  0  0  0  0  0  0  0  0  0
   26.1122   32.7591   45.9858 H   0  0  0  0  0  0  0  0  0  0  0  0
   24.4446   32.2536   45.6736 H   0  0  0  0  0  0  0  0  0  0  0  0
   24.8413   33.9638   45.6947 H   0  0  0  0  0  0  0  0  0  0  0  0
   24.3952   31.4927   49.1778 H   0  0  0  0  0  0  0  0  0  0  0  0
   24.2124   30.9428   47.5198 H   0  0  0  0  0  0  0  0  0  0  0  0
   25.8327   31.2135   48.1796 H   0  0  0  0  0  0  0  0  0  0  0  0
   19.9913   32.4451   50.2375 H   0  0  0  0  0  0  0  0  0  0  0  0
   21.7077   32.8451   49.9897 H   0  0  0  0  0  0  0  0  0  0  0  0
   21.5740   34.5697   51.7820 H   0  0  0  0  0  0  0  0  0  0  0  0
   21.0186   33.0167   52.4138 H   0  0  0  0  0  0  0  0  0  0  0  0
   16.5448   35.0376   54.6545 H   0  0  0  0  0  0  0  0  0  0  0  0
   16.5924   36.1333   53.2616 H   0  0  0  0  0  0  0  0  0  0  0  0
   17.0000   34.4186   53.0737 H   0  0  0  0  0  0  0  0  0  0  0  0
   21.3715   32.9738   57.2467 H   0  0  0  0  0  0  0  0  0  0  0  0
   20.6909   32.0089   58.5525 H   0  0  0  0  0  0  0  0  0  0  0  0
   20.8979   30.7648   56.3733 H   0  0  0  0  0  0  0  0  0  0  0  0
   19.2992   29.9917   58.0409 H   0  0  0  0  0  0  0  0  0  0  0  0
   18.0485   31.1254   57.4354 H   0  0  0  0  0  0  0  0  0  0  0  0
   17.8370   29.4764   54.1910 H   0  0  0  0  0  0  0  0  0  0  0  0
   17.2248   30.8345   55.1685 H   0  0  0  0  0  0  0  0  0  0  0  0
   20.0985   30.4744   54.1695 H   0  0  0  0  0  0  0  0  0  0  0  0
   18.9035   31.6665   53.5685 H   0  0  0  0  0  0  0  0  0  0  0  0
   19.3620   35.0217   61.5900 H   0  0  0  0  0  0  0  0  0  0  0  0
   17.5843   35.2240   61.5892 H   0  0  0  0  0  0  0  0  0  0  0  0
   19.1406   32.6133   61.9318 H   0  0  0  0  0  0  0  0  0  0  0  0
   18.1622   33.4097   63.1701 H   0  0  0  0  0  0  0  0  0  0  0  0
   16.1092   33.0056   61.8667 H   0  0  0  0  0  0  0  0  0  0  0  0
   16.9716   31.4658   62.0453 H   0  0  0  0  0  0  0  0  0  0  0  0
   17.0404   25.3320   55.3496 H   0  0  0  0  0  0  0  0  0  0  0  0
   18.2380   27.3846   54.7528 H   0  0  0  0  0  0  0  0  0  0  0  0
   17.2249   29.1808   58.5075 H   0  0  0  0  0  0  0  0  0  0  0  0
  1  2  1  0  0  0  0
  2  3  1  0  0  0  0
  3  4  1  0  0  0  0
  2  5  1  0  0  0  0
  5  6  4  0  0  0  0
  6  7  4  0  0  0  0
  7  8  4  0  0  0  0
  8  9  4  0  0  0  0
  5 10  4  0  0  0  0
  9 10  4  0  0  0  0
 10 11  1  0  0  0  0
 11 12  1  0  0  0  0
 12 13  1  0  0  0  0
 13 14  1  0  0  0  0
 11 15  2  0  0  0  0
 15 16  1  0  0  0  0
 16 17  1  0  0  0  0
 17 18  1  0  0  0  0
 17 19  1  0  0  0  0
 17 20  1  0  0  0  0
 20 21  1  0  0  0  0
 21 22  1  0  0  0  0
 22 23  1  0  0  0  0
 23 24  1  0  0  0  0
 24 25  1  0  0  0  0
 25 26  4  0  0  0  0
 26 27  1  0  0  0  0
 27 28  1  0  0  0  0
 28 29  4  0  0  0  0
 29 30  1  0  0  0  0
 30 31  1  0  0  0  0
 31 32  1  0  0  0  0
 31 33  1  0  0  0  0
 30 34  1  0  0  0  0
 34 35  4  0  0  0  0
 35 36  1  0  0  0  0
 36 37  1  0  0  0  0
 37 38  1  0  0  0  0
 38 39  1  0  0  0  0
 39 40  4  0  0  0  0
 40 41  1  0  0  0  0
 41 42  3  0  0  0  0
 42 43  1  0  0  0  0
 43 44  1  0  0  0  0
 44 45  1  0  0  0  0
 44 46  1  0  0  0  0
 43 47  1  0  0  0  0
 43 48  1  0  0  0  0
 40 49  2  0  0  0  0
 39 50  1  0  0  0  0
 36 51  1  0  0  0  0
 50 51  1  0  0  0  0
 35 52  2  0  0  0  0
 34 53  1  0  0  0  0
 29 54  2  0  0  0  0
 27 55  1  0  0  0  0
 55 56  1  0  0  0  0
 56 57  1  0  0  0  0
 57 58  1  0  0  0  0
 58 59  1  0  0  0  0
 59 60  1  0  0  0  0
 56 61  1  0  0  0  0
 60 61  1  0  0  0  0
 26 62  2  0  0  0  0
 25 63  1  0  0  0  0
 63 64  1  0  0  0  0
 23 65  1  0  0  0  0
 64 65  1  0  0  0  0
 22 66  2  0  0  0  0
 15 67  4  0  0  0  0
 12 68  1  0  0  0  0
 67 68  4  0  0  0  0
 68 69  4  0  0  0  0
 69 70  2  0  0  0  0
 58 71  1  0  0  0  0
 70 71  4  0  0  0  0
 67 72  4  0  0  0  0
 71 72  4  0  0  0  0
 36 73  1  0  0  0  0
  1 74  1  0  0  0  0
  1 75  1  0  0  0  0
  1 76  1  0  0  0  0
  2 77  1  0  0  0  0
  4 78  1  0  0  0  0
  4 79  1  0  0  0  0
  4 80  1  0  0  0  0
  7 81  1  0  0  0  0
  8 82  1  0  0  0  0
  9 83  1  0  0  0  0
 13 84  1  0  0  0  0
 13 85  1  0  0  0  0
 14 86  1  0  0  0  0
 14 87  1  0  0  0  0
 14 88  1  0  0  0  0
 16 89  1  0  0  0  0
 16 90  1  0  0  0  0
 18 91  1  0  0  0  0
 18 92  1  0  0  0  0
 18 93  1  0  0  0  0
 19 94  1  0  0  0  0
 19 95  1  0  0  0  0
 19 96  1  0  0  0  0
 20 97  1  0  0  0  0
 20 98  1  0  0  0  0
 23 99  1  0  0  0  0
 24100  1  0  0  0  0
 27101  1  0  0  0  0
 28102  1  0  0  0  0
 30103  1  0  0  0  0
 31104  1  0  0  0  0
 32105  1  0  0  0  0
 32106  1  0  0  0  0
 32107  1  0  0  0  0
 33108  1  0  0  0  0
 33109  1  0  0  0  0
 33110  1  0  0  0  0
 37111  1  0  0  0  0
 37112  1  0  0  0  0
 38113  1  0  0  0  0
 38114  1  0  0  0  0
 45115  1  0  0  0  0
 45116  1  0  0  0  0
 45117  1  0  0  0  0
 46118  1  0  0  0  0
 46119  1  0  0  0  0
 46120  1  0  0  0  0
 47121  1  0  0  0  0
 47122  1  0  0  0  0
 47123  1  0  0  0  0
 48124  1  0  0  0  0
 48125  1  0  0  0  0
 48126  1  0  0  0  0
 50127  1  0  0  0  0
 50128  1  0  0  0  0
 51129  1  0  0  0  0
 51130  1  0  0  0  0
 53131  1  0  0  0  0
 53132  1  0  0  0  0
 53133  1  0  0  0  0
 55134  1  0  0  0  0
 55135  1  0  0  0  0
 56136  1  0  0  0  0
 57137  1  0  0  0  0
 57138  1  0  0  0  0
 59139  1  0  0  0  0
 59140  1  0  0  0  0
 60141  1  0  0  0  0
 60142  1  0  0  0  0
 63143  1  0  0  0  0
 63144  1  0  0  0  0
 64145  1  0  0  0  0
 64146  1  0  0  0  0
 65147  1  0  0  0  0
 65148  1  0  0  0  0
 69149  1  0  0  0  0
 70150  1  0  0  0  0
 72151  1  0  0  0  0
M  END
