obj07
  PyMOL3.1          3D                             0

 73 79  0  0  0  0  0  0  0  0999 V2000
   17.7011   23.3387   62.5755 C   0  0  0  0  0  0  0  0  0  0  0  0
   16.9844   24.3640   61.7355 C   0  0  0  0  0  0  0  0  0  0  0  0
   17.3710   25.6419   62.0987 O   0  0  0  0  0  0  0  0  0  0  0  0
   18.6028   26.1346   61.5565 C   0  0  0  0  0  0  0  0  0  0  0  0
   15.5070   24.2859   61.8749 C   0  0  0  0  0  0  0  0  0  0  0  0
   15.0325   23.8069   63.0178 N   0  0  0  0  0  0  0  0  0  0  0  0
   13.7259   23.5892   63.1822 C   0  0  0  0  0  0  0  0  0  0  0  0
   12.8239   23.8702   62.1524 C   0  0  0  0  0  0  0  0  0  0  0  0
   13.3065   24.3947   60.9716 C   0  0  0  0  0  0  0  0  0  0  0  0
   14.6472   24.6303   60.8414 C   0  0  0  0  0  0  0  0  0  0  0  0
   15.1774   25.3026   59.6724 C   0  0  0  0  0  0  0  0  0  0  0  0
   15.6360   24.7132   58.5230 N   0  0  0  0  0  0  0  0  0  0  0  0
   15.6448   23.2910   58.2177 C   0  0  0  0  0  0  0  0  0  0  0  0
   14.5872   22.9642   57.1678 C   0  0  0  0  0  0  0  0  0  0  0  0
   15.3725   26.6732   59.5920 C   0  0  0  0  0  0  0  0  0  0  0  0
   15.0258   27.6725   60.6269 C   0  0  0  0  0  0  0  0  0  0  0  0
   13.5745   28.2602   60.5288 C   0  0  0  0  0  0  0  0  0  0  0  0
   12.9490   28.3686   61.9447 C   0  0  0  0  0  0  0  0  0  0  0  0
   12.6664   27.4330   59.6610 C   0  0  0  0  0  0  0  0  0  0  0  0
   13.6061   29.6301   59.8993 C   0  0  0  0  0  0  0  0  0  0  0  0
   14.7556   30.3150   60.1981 O   0  0  0  0  0  0  0  0  0  0  0  0
   14.9345   31.5178   59.7136 C   0  0  0  0  0  0  0  0  0  0  0  0
   16.2096   32.1450   60.1477 C   0  0  0  0  0  0  0  0  0  0  0  0
   16.4291   33.3318   59.3670 N   0  0  0  0  0  0  0  0  0  0  0  0
   17.5495   34.0089   59.7378 N   0  0  0  0  0  0  0  0  0  0  0  0
   18.6143   34.0877   58.9080 C   0  0  0  0  0  0  0  0  0  0  0  0
   18.5145   33.4188   57.5409 C   0  0  0  0  0  0  0  0  0  0  0  0
   19.2072   34.1728   56.5333 N   0  0  0  0  0  0  0  0  0  0  0  0
   18.6784   35.1986   55.8770 C   0  0  0  0  0  0  0  0  0  0  0  0
   19.5951   35.7755   54.8426 C   0  0  0  0  0  0  0  0  0  0  0  0
   19.8060   37.3193   54.9285 C   0  0  0  0  0  0  0  0  0  0  0  0
   20.7280   37.7687   53.7937 C   0  0  0  0  0  0  0  0  0  0  0  0
   20.4529   37.7002   56.2705 C   0  0  0  0  0  0  0  0  0  0  0  0
   19.0752   35.3824   53.5487 N   0  0  0  0  0  0  0  0  0  0  0  0
   19.7039   34.3690   52.8922 C   0  0  0  0  0  0  0  0  0  0  0  0
   19.3581   33.9197   51.5054 C   0  0  0  0  0  0  0  0  0  0  0  0
   20.6333   33.7506   50.6855 C   0  0  0  0  0  0  0  0  0  0  0  0
   21.1848   35.0035   50.2366 C   0  0  0  0  0  0  0  0  0  0  0  0
   20.2335   35.7394   49.4091 N   0  0  0  0  0  0  0  0  0  0  0  0
   20.5698   36.1750   48.1823 C   0  0  0  0  0  0  0  0  0  0  0  0
   21.8028   35.6635   47.6540 C   0  0  0  0  0  0  0  0  0  0  0  0
   22.3030   34.6394   47.2390 C   0  0  0  0  0  0  0  0  0  0  0  0
   23.8001   34.4581   47.0186 C   0  0  0  0  0  0  0  0  0  0  0  0
   24.5641   35.3735   47.9079 N   0  0  0  0  0  0  0  0  0  0  0  0
   24.5688   34.9780   49.3076 C   0  0  0  0  0  0  0  0  0  0  0  0
   25.9438   35.6956   47.4725 C   0  0  0  0  0  0  0  0  0  0  0  0
   24.0917   34.8122   45.5638 C   0  0  0  0  0  0  0  0  0  0  0  0
   24.1908   33.0118   47.2789 C   0  0  0  0  0  0  0  0  0  0  0  0
   19.8784   36.9475   47.5590 O   0  0  0  0  0  0  0  0  0  0  0  0
   18.9186   35.9194   49.9865 C   0  0  0  0  0  0  0  0  0  0  0  0
   18.4206   34.6388   50.5932 C   0  0  0  0  0  0  0  0  0  0  0  0
   20.6382   33.8068   53.4548 O   0  0  0  0  0  0  0  0  0  0  0  0
   17.8757   36.0729   53.0879 C   0  0  0  0  0  0  0  0  0  0  0  0
   17.5405   35.5923   56.0612 O   0  0  0  0  0  0  0  0  0  0  0  0
   19.1564   32.0462   57.6573 C   0  0  0  0  0  0  0  0  0  0  0  0
   18.9277   31.1112   56.5223 C   0  0  0  0  0  0  0  0  0  0  0  0
   17.5907   30.4187   56.7059 C   0  0  0  0  0  0  0  0  0  0  0  0
   17.6168   29.1908   55.9225 N   0  0  0  0  0  0  0  0  0  0  0  0
   17.8887   29.4459   54.5163 C   0  0  0  0  0  0  0  0  0  0  0  0
   19.0456   30.4748   54.2950 C   0  0  0  0  0  0  0  0  0  0  0  0
   18.9533   31.5952   55.2190 O   0  0  0  0  0  0  0  0  0  0  0  0
   19.6450   34.5895   59.2470 O   0  0  0  0  0  0  0  0  0  0  0  0
   17.5500   34.5068   61.1278 C   0  0  0  0  0  0  0  0  0  0  0  0
   17.3799   33.2821   62.0240 C   0  0  0  0  0  0  0  0  0  0  0  0
   16.1635   32.4889   61.6427 C   0  0  0  0  0  0  0  0  0  0  0  0
   14.1420   32.0622   58.9874 O   0  0  0  0  0  0  0  0  0  0  0  0
   16.0015   26.8895   58.3389 C   0  0  0  0  0  0  0  0  0  0  0  0
   16.1242   25.6738   57.7015 C   0  0  0  0  0  0  0  0  0  0  0  0
   16.7386   25.6409   56.4239 C   0  0  0  0  0  0  0  0  0  0  0  0
   17.2190   26.8184   55.8416 C   0  0  0  0  0  0  0  0  0  0  0  0
   17.0998   28.0288   56.4970 C   0  0  0  0  0  0  0  0  0  0  0  0
   16.4887   28.0754   57.7744 C   0  0  0  0  0  0  0  0  0  0  0  0
   18.7463   32.6976   51.6750 F   0  0  0  0  0  0  0  0  0  0  0  0
  1  2  1  0  0  0  0
  2  3  1  0  0  0  0
  2  5  1  0  0  0  0
  3  4  1  0  0  0  0
  5  6  4  0  0  0  0
  5 10  4  0  0  0  0
  6  7  4  0  0  0  0
  7  8  4  0  0  0  0
  8  9  4  0  0  0  0
  9 10  4  0  0  0  0
 10 11  1  0  0  0  0
 11 12  4  0  0  0  0
 11 15  4  0  0  0  0
 12 13  1  0  0  0  0
 12 68  4  0  0  0  0
 13 14  1  0  0  0  0
 15 16  1  0  0  0  0
 15 67  4  0  0  0  0
 16 17  1  0  0  0  0
 17 18  1  0  0  0  0
 17 19  1  0  0  0  0
 17 20  1  0  0  0  0
 20 21  1  0  0  0  0
 21 22  1  0  0  0  0
 22 23  1  0  0  0  0
 22 66  2  0  0  0  0
 23 24  1  0  0  0  0
 23 65  1  0  0  0  0
 24 25  1  0  0  0  0
 25 26  1  0  0  0  0
 25 63  1  0  0  0  0
 26 27  1  0  0  0  0
 26 62  2  0  0  0  0
 27 28  1  0  0  0  0
 27 55  1  0  0  0  0
 28 29  1  0  0  0  0
 29 30  1  0  0  0  0
 29 54  2  0  0  0  0
 30 31  1  0  0  0  0
 30 34  1  0  0  0  0
 31 32  1  0  0  0  0
 31 33  1  0  0  0  0
 34 35  1  0  0  0  0
 34 53  1  0  0  0  0
 35 36  1  0  0  0  0
 35 52  2  0  0  0  0
 36 37  1  0  0  0  0
 36 51  1  0  0  0  0
 36 73  1  0  0  0  0
 37 38  1  0  0  0  0
 38 39  1  0  0  0  0
 39 40  1  0  0  0  0
 39 50  1  0  0  0  0
 40 41  1  0  0  0  0
 40 49  2  0  0  0  0
 41 42  1  0  0  0  0
 42 43  1  0  0  0  0
 43 44  1  0  0  0  0
 43 47  1  0  0  0  0
 43 48  1  0  0  0  0
 44 45  1  0  0  0  0
 44 46  1  0  0  0  0
 50 51  1  0  0  0  0
 55 56  1  0  0  0  0
 56 57  1  0  0  0  0
 56 61  1  0  0  0  0
 57 58  1  0  0  0  0
 58 59  1  0  0  0  0
 58 71  1  0  0  0  0
 59 60  1  0  0  0  0
 60 61  1  0  0  0  0
 63 64  1  0  0  0  0
 64 65  1  0  0  0  0
 67 68  4  0  0  0  0
 67 72  4  0  0  0  0
 68 69  4  0  0  0  0
 69 70  4  0  0  0  0
 70 71  4  0  0  0  0
 71 72  4  0  0  0  0
M  END
$$$$
