obj04
  PyMOL3.1          3D                             0

 73 79  0  0  0  0  0  0  0  0999 V2000
   17.6205   23.3115   62.7176 C   0  0  0  0  0  0  0  0  0  0  0  0
   16.9503   24.3036   61.8089 C   0  0  0  0  0  0  0  0  0  0  0  0
   17.3000   25.6052   62.1131 O   0  0  0  0  0  0  0  0  0  0  0  0
   18.5525   26.0933   61.6170 C   0  0  0  0  0  0  0  0  0  0  0  0
   15.4548   24.2153   61.8739 C   0  0  0  0  0  0  0  0  0  0  0  0
   14.8982   23.7780   62.9918 N   0  0  0  0  0  0  0  0  0  0  0  0
   13.5771   23.5711   63.0720 C   0  0  0  0  0  0  0  0  0  0  0  0
   12.7490   23.8274   61.9727 C   0  0  0  0  0  0  0  0  0  0  0  0
   13.3170   24.3148   60.8109 C   0  0  0  0  0  0  0  0  0  0  0  0
   14.6791   24.5312   60.7717 C   0  0  0  0  0  0  0  0  0  0  0  0
   15.3269   25.1719   59.6407 C   0  0  0  0  0  0  0  0  0  0  0  0
   15.9585   24.5429   58.5879 N   0  0  0  0  0  0  0  0  0  0  0  0
   16.0231   23.1053   58.3438 C   0  0  0  0  0  0  0  0  0  0  0  0
   15.1727   22.7381   57.1409 C   0  0  0  0  0  0  0  0  0  0  0  0
   15.5194   26.5426   59.5410 C   0  0  0  0  0  0  0  0  0  0  0  0
   14.9986   27.5722   60.4769 C   0  0  0  0  0  0  0  0  0  0  0  0
   13.5992   28.1909   60.0886 C   0  0  0  0  0  0  0  0  0  0  0  0
   12.8326   27.3078   59.1237 C   0  0  0  0  0  0  0  0  0  0  0  0
   12.7544   28.4109   61.3670 C   0  0  0  0  0  0  0  0  0  0  0  0
   13.8100   29.5143   59.4090 C   0  0  0  0  0  0  0  0  0  0  0  0
   14.9114   30.2056   59.8986 O   0  0  0  0  0  0  0  0  0  0  0  0
   14.9960   31.5146   59.6584 C   0  0  0  0  0  0  0  0  0  0  0  0
   16.2504   32.1428   60.1656 C   0  0  0  0  0  0  0  0  0  0  0  0
   16.4702   33.3630   59.4239 N   0  0  0  0  0  0  0  0  0  0  0  0
   17.5648   34.0514   59.8366 N   0  0  0  0  0  0  0  0  0  0  0  0
   18.6503   34.1793   59.0307 C   0  0  0  0  0  0  0  0  0  0  0  0
   18.5844   33.5323   57.6679 C   0  0  0  0  0  0  0  0  0  0  0  0
   19.2816   34.2763   56.6497 N   0  0  0  0  0  0  0  0  0  0  0  0
   18.7320   35.2621   55.9587 C   0  0  0  0  0  0  0  0  0  0  0  0
   19.6034   35.7847   54.8448 C   0  0  0  0  0  0  0  0  0  0  0  0
   19.8510   37.3195   54.8586 C   0  0  0  0  0  0  0  0  0  0  0  0
   20.7429   37.6953   53.6758 C   0  0  0  0  0  0  0  0  0  0  0  0
   20.5188   37.7354   56.1707 C   0  0  0  0  0  0  0  0  0  0  0  0
   18.9583   35.3816   53.6278 N   0  0  0  0  0  0  0  0  0  0  0  0
   19.4726   34.3190   52.9524 C   0  0  0  0  0  0  0  0  0  0  0  0
   18.8384   33.9508   51.6351 C   0  0  0  0  0  0  0  0  0  0  0  0
   19.2801   32.6199   51.0681 C   0  0  0  0  0  0  0  0  0  0  0  0
   18.6133   32.4064   49.7082 C   0  0  0  0  0  0  0  0  0  0  0  0
   18.9198   33.5812   48.8804 N   0  0  0  0  0  0  0  0  0  0  0  0
   19.7233   33.5476   47.8534 C   0  0  0  0  0  0  0  0  0  0  0  0
   20.2417   34.8392   47.5002 C   0  0  0  0  0  0  0  0  0  0  0  0
   20.9343   35.5653   46.9323 C   0  0  0  0  0  0  0  0  0  0  0  0
   21.3581   37.0255   47.0128 C   0  0  0  0  0  0  0  0  0  0  0  0
   22.4132   37.1931   48.0243 N   0  0  0  0  0  0  0  0  0  0  0  0
   22.0491   36.9906   49.4123 C   0  0  0  0  0  0  0  0  0  0  0  0
   23.7599   36.7714   47.6642 C   0  0  0  0  0  0  0  0  0  0  0  0
   21.8788   37.4827   45.6602 C   0  0  0  0  0  0  0  0  0  0  0  0
   20.1654   37.9288   47.3865 C   0  0  0  0  0  0  0  0  0  0  0  0
   20.0187   32.5180   47.3133 O   0  0  0  0  0  0  0  0  0  0  0  0
   18.5047   34.8637   49.3815 C   0  0  0  0  0  0  0  0  0  0  0  0
   19.2071   35.0453   50.6507 C   0  0  0  0  0  0  0  0  0  0  0  0
   20.4304   33.7030   53.3774 O   0  0  0  0  0  0  0  0  0  0  0  0
   17.7570   36.1145   53.2347 C   0  0  0  0  0  0  0  0  0  0  0  0
   17.5935   35.6498   56.1536 O   0  0  0  0  0  0  0  0  0  0  0  0
   19.2538   32.1691   57.7811 C   0  0  0  0  0  0  0  0  0  0  0  0
   18.9008   31.2713   56.6371 C   0  0  0  0  0  0  0  0  0  0  0  0
   18.6707   29.9194   57.2379 C   0  0  0  0  0  0  0  0  0  0  0  0
   18.3432   28.9545   56.2119 N   0  0  0  0  0  0  0  0  0  0  0  0
   19.3999   28.9290   55.1621 C   0  0  0  0  0  0  0  0  0  0  0  0
   19.6743   30.3462   54.6025 C   0  0  0  0  0  0  0  0  0  0  0  0
   19.9514   31.2507   55.7109 O   0  0  0  0  0  0  0  0  0  0  0  0
   19.6717   34.6900   59.3858 O   0  0  0  0  0  0  0  0  0  0  0  0
   17.5237   34.5156   61.2283 C   0  0  0  0  0  0  0  0  0  0  0  0
   17.3503   33.2588   62.0968 C   0  0  0  0  0  0  0  0  0  0  0  0
   16.1492   32.4500   61.6642 C   0  0  0  0  0  0  0  0  0  0  0  0
   14.1449   32.1252   59.0773 O   0  0  0  0  0  0  0  0  0  0  0  0
   16.3462   26.7183   58.3981 C   0  0  0  0  0  0  0  0  0  0  0  0
   16.5713   25.4863   57.8184 C   0  0  0  0  0  0  0  0  0  0  0  0
   17.3747   25.4144   56.6566 C   0  0  0  0  0  0  0  0  0  0  0  0
   17.9527   26.5651   56.1219 C   0  0  0  0  0  0  0  0  0  0  0  0
   17.7538   27.7852   56.7301 C   0  0  0  0  0  0  0  0  0  0  0  0
   16.9258   27.8809   57.8876 C   0  0  0  0  0  0  0  0  0  0  0  0
   17.4739   33.8526   51.7978 F   0  0  0  0  0  0  0  0  0  0  0  0
  1  2  1  0  0  0  0
  2  3  1  0  0  0  0
  2  5  1  0  0  0  0
  3  4  1  0  0  0  0
  5  6  4  0  0  0  0
  5 10  4  0  0  0  0
  6  7  4  0  0  0  0
  7  8  4  0  0  0  0
  8  9  4  0  0  0  0
  9 10  4  0  0  0  0
 10 11  1  0  0  0  0
 11 12  4  0  0  0  0
 11 15  4  0  0  0  0
 12 13  1  0  0  0  0
 12 68  4  0  0  0  0
 13 14  1  0  0  0  0
 15 16  1  0  0  0  0
 15 67  4  0  0  0  0
 16 17  1  0  0  0  0
 17 18  1  0  0  0  0
 17 19  1  0  0  0  0
 17 20  1  0  0  0  0
 20 21  1  0  0  0  0
 21 22  1  0  0  0  0
 22 23  1  0  0  0  0
 22 66  2  0  0  0  0
 23 24  1  0  0  0  0
 23 65  1  0  0  0  0
 24 25  1  0  0  0  0
 25 26  1  0  0  0  0
 25 63  1  0  0  0  0
 26 27  1  0  0  0  0
 26 62  2  0  0  0  0
 27 28  1  0  0  0  0
 27 55  1  0  0  0  0
 28 29  1  0  0  0  0
 29 30  1  0  0  0  0
 29 54  2  0  0  0  0
 30 31  1  0  0  0  0
 30 34  1  0  0  0  0
 31 32  1  0  0  0  0
 31 33  1  0  0  0  0
 34 35  1  0  0  0  0
 34 53  1  0  0  0  0
 35 36  1  0  0  0  0
 35 52  2  0  0  0  0
 36 37  1  0  0  0  0
 36 51  1  0  0  0  0
 36 73  1  0  0  0  0
 37 38  1  0  0  0  0
 38 39  1  0  0  0  0
 39 40  1  0  0  0  0
 39 50  1  0  0  0  0
 40 41  1  0  0  0  0
 40 49  2  0  0  0  0
 41 42  1  0  0  0  0
 42 43  1  0  0  0  0
 43 44  1  0  0  0  0
 43 47  1  0  0  0  0
 43 48  1  0  0  0  0
 44 45  1  0  0  0  0
 44 46  1  0  0  0  0
 50 51  1  0  0  0  0
 55 56  1  0  0  0  0
 56 57  1  0  0  0  0
 56 61  1  0  0  0  0
 57 58  1  0  0  0  0
 58 59  1  0  0  0  0
 58 71  1  0  0  0  0
 59 60  1  0  0  0  0
 60 61  1  0  0  0  0
 63 64  1  0  0  0  0
 64 65  1  0  0  0  0
 67 68  4  0  0  0  0
 67 72  4  0  0  0  0
 68 69  4  0  0  0  0
 69 70  4  0  0  0  0
 70 71  4  0  0  0  0
 71 72  4  0  0  0  0
M  END
$$$$
