obj01
  PyMOL3.1          3D                             0

 73 79  0  0  0  0  0  0  0  0999 V2000
   10.7656   23.4658   60.4134 C   0  0  0  0  0  0  0  0  0  0  0  0
   12.1062   23.9931   59.9236 C   0  0  0  0  0  0  0  0  0  0  0  0
   11.8659   25.0863   59.2003 O   0  0  0  0  0  0  0  0  0  0  0  0
   11.1850   24.9041   57.9613 C   0  0  0  0  0  0  0  0  0  0  0  0
   13.0302   24.2242   61.0738 C   0  0  0  0  0  0  0  0  0  0  0  0
   12.5859   23.7382   62.2015 N   0  0  0  0  0  0  0  0  0  0  0  0
   13.2942   23.7678   63.3166 C   0  0  0  0  0  0  0  0  0  0  0  0
   14.5534   24.3293   63.3271 C   0  0  0  0  0  0  0  0  0  0  0  0
   15.0396   24.8699   62.1823 C   0  0  0  0  0  0  0  0  0  0  0  0
   14.2806   24.8374   61.0365 C   0  0  0  0  0  0  0  0  0  0  0  0
   14.8341   25.4962   59.8619 C   0  0  0  0  0  0  0  0  0  0  0  0
   15.1586   24.9103   58.6790 N   0  0  0  0  0  0  0  0  0  0  0  0
   15.0582   23.5034   58.3580 C   0  0  0  0  0  0  0  0  0  0  0  0
   14.2061   23.2524   57.1435 C   0  0  0  0  0  0  0  0  0  0  0  0
   15.1579   26.8509   59.7906 C   0  0  0  0  0  0  0  0  0  0  0  0
   15.0361   27.8431   60.8679 C   0  0  0  0  0  0  0  0  0  0  0  0
   13.6429   28.5193   60.9689 C   0  0  0  0  0  0  0  0  0  0  0  0
   13.2696   28.6788   62.4607 C   0  0  0  0  0  0  0  0  0  0  0  0
   12.5501   27.7571   60.2864 C   0  0  0  0  0  0  0  0  0  0  0  0
   13.6709   29.8710   60.2856 C   0  0  0  0  0  0  0  0  0  0  0  0
   14.8421   30.5440   60.4918 O   0  0  0  0  0  0  0  0  0  0  0  0
   14.9498   31.7877   60.0458 C   0  0  0  0  0  0  0  0  0  0  0  0
   16.2583   32.3783   60.3595 C   0  0  0  0  0  0  0  0  0  0  0  0
   16.4449   33.5712   59.5868 N   0  0  0  0  0  0  0  0  0  0  0  0
   17.6283   34.1558   59.8760 N   0  0  0  0  0  0  0  0  0  0  0  0
   18.6261   34.1716   58.9823 C   0  0  0  0  0  0  0  0  0  0  0  0
   18.3310   33.6810   57.5961 C   0  0  0  0  0  0  0  0  0  0  0  0
   19.1645   34.3269   56.6346 N   0  0  0  0  0  0  0  0  0  0  0  0
   18.7444   35.3598   55.9250 C   0  0  0  0  0  0  0  0  0  0  0  0
   19.7232   35.8709   54.9262 C   0  0  0  0  0  0  0  0  0  0  0  0
   20.0184   37.3896   55.0254 C   0  0  0  0  0  0  0  0  0  0  0  0
   20.9947   37.7988   53.9262 C   0  0  0  0  0  0  0  0  0  0  0  0
   20.6314   37.7239   56.3912 C   0  0  0  0  0  0  0  0  0  0  0  0
   19.2063   35.5649   53.6102 N   0  0  0  0  0  0  0  0  0  0  0  0
   19.7954   34.5718   52.9207 C   0  0  0  0  0  0  0  0  0  0  0  0
   19.4282   34.4183   51.4755 C   0  0  0  0  0  0  0  0  0  0  0  0
   20.0535   35.5904   50.7653 C   0  0  0  0  0  0  0  0  0  0  0  0
   19.7165   35.5752   49.3185 C   0  0  0  0  0  0  0  0  0  0  0  0
   20.3113   34.3891   48.8397 N   0  0  0  0  0  0  0  0  0  0  0  0
   21.4321   34.5815   48.0697 C   0  0  0  0  0  0  0  0  0  0  0  0
   22.5100   33.6970   48.1630 C   0  0  0  0  0  0  0  0  0  0  0  0
   22.9137   32.6088   48.2028 C   0  0  0  0  0  0  0  0  0  0  0  0
   24.3053   32.0938   48.4695 C   0  0  0  0  0  0  0  0  0  0  0  0
   24.8330   32.7273   49.7056 N   0  0  0  0  0  0  0  0  0  0  0  0
   24.0564   32.4051   50.8920 C   0  0  0  0  0  0  0  0  0  0  0  0
   26.2750   32.5205   49.9474 C   0  0  0  0  0  0  0  0  0  0  0  0
   24.2934   30.5762   48.6316 C   0  0  0  0  0  0  0  0  0  0  0  0
   25.1921   32.4758   47.2824 C   0  0  0  0  0  0  0  0  0  0  0  0
   21.5519   35.5536   47.3624 O   0  0  0  0  0  0  0  0  0  0  0  0
   19.7319   33.1529   49.3953 C   0  0  0  0  0  0  0  0  0  0  0  0
   19.9465   33.1312   50.8723 C   0  0  0  0  0  0  0  0  0  0  0  0
   20.6276   33.8491   53.4278 O   0  0  0  0  0  0  0  0  0  0  0  0
   18.0691   36.3554   53.1396 C   0  0  0  0  0  0  0  0  0  0  0  0
   17.6183   35.8220   56.0557 O   0  0  0  0  0  0  0  0  0  0  0  0
   18.5811   32.1803   57.5442 C   0  0  0  0  0  0  0  0  0  0  0  0
   18.1209   31.6086   56.2302 C   0  0  0  0  0  0  0  0  0  0  0  0
   17.0478   30.5790   56.5196 C   0  0  0  0  0  0  0  0  0  0  0  0
   17.2566   29.2696   55.9234 N   0  0  0  0  0  0  0  0  0  0  0  0
   18.4397   29.0600   55.1168 C   0  0  0  0  0  0  0  0  0  0  0  0
   19.0727   30.3171   54.5437 C   0  0  0  0  0  0  0  0  0  0  0  0
   19.2725   31.2074   55.6417 O   0  0  0  0  0  0  0  0  0  0  0  0
   19.7335   34.5168   59.2695 O   0  0  0  0  0  0  0  0  0  0  0  0
   17.7688   34.6259   61.2448 C   0  0  0  0  0  0  0  0  0  0  0  0
   17.6308   33.3864   62.1366 C   0  0  0  0  0  0  0  0  0  0  0  0
   16.3444   32.6864   61.8504 C   0  0  0  0  0  0  0  0  0  0  0  0
   14.0818   32.3818   59.4574 O   0  0  0  0  0  0  0  0  0  0  0  0
   15.7017   27.0567   58.5137 C   0  0  0  0  0  0  0  0  0  0  0  0
   15.6732   25.8601   57.8416 C   0  0  0  0  0  0  0  0  0  0  0  0
   16.1702   25.8076   56.5312 C   0  0  0  0  0  0  0  0  0  0  0  0
   16.6796   26.9428   55.9227 C   0  0  0  0  0  0  0  0  0  0  0  0
   16.7264   28.1437   56.5883 C   0  0  0  0  0  0  0  0  0  0  0  0
   16.2312   28.2110   57.9175 C   0  0  0  0  0  0  0  0  0  0  0  0
   18.0636   34.3578   51.3220 F   0  0  0  0  0  0  0  0  0  0  0  0
  1  2  1  0  0  0  0
  2  3  1  0  0  0  0
  2  5  1  0  0  0  0
  3  4  1  0  0  0  0
  5  6  4  0  0  0  0
  5 10  4  0  0  0  0
  6  7  4  0  0  0  0
  7  8  4  0  0  0  0
  8  9  4  0  0  0  0
  9 10  4  0  0  0  0
 10 11  1  0  0  0  0
 11 12  4  0  0  0  0
 11 15  4  0  0  0  0
 12 13  1  0  0  0  0
 12 68  4  0  0  0  0
 13 14  1  0  0  0  0
 15 16  1  0  0  0  0
 15 67  4  0  0  0  0
 16 17  1  0  0  0  0
 17 18  1  0  0  0  0
 17 19  1  0  0  0  0
 17 20  1  0  0  0  0
 20 21  1  0  0  0  0
 21 22  1  0  0  0  0
 22 23  1  0  0  0  0
 22 66  2  0  0  0  0
 23 24  1  0  0  0  0
 23 65  1  0  0  0  0
 24 25  1  0  0  0  0
 25 26  1  0  0  0  0
 25 63  1  0  0  0  0
 26 27  1  0  0  0  0
 26 62  2  0  0  0  0
 27 28  1  0  0  0  0
 27 55  1  0  0  0  0
 28 29  1  0  0  0  0
 29 30  1  0  0  0  0
 29 54  2  0  0  0  0
 30 31  1  0  0  0  0
 30 34  1  0  0  0  0
 31 32  1  0  0  0  0
 31 33  1  0  0  0  0
 34 35  1  0  0  0  0
 34 53  1  0  0  0  0
 35 36  1  0  0  0  0
 35 52  2  0  0  0  0
 36 37  1  0  0  0  0
 36 51  1  0  0  0  0
 36 73  1  0  0  0  0
 37 38  1  0  0  0  0
 38 39  1  0  0  0  0
 39 40  1  0  0  0  0
 39 50  1  0  0  0  0
 40 41  1  0  0  0  0
 40 49  2  0  0  0  0
 41 42  1  0  0  0  0
 42 43  1  0  0  0  0
 43 44  1  0  0  0  0
 43 47  1  0  0  0  0
 43 48  1  0  0  0  0
 44 45  1  0  0  0  0
 44 46  1  0  0  0  0
 50 51  1  0  0  0  0
 55 56  1  0  0  0  0
 56 57  1  0  0  0  0
 56 61  1  0  0  0  0
 57 58  1  0  0  0  0
 58 59  1  0  0  0  0
 58 71  1  0  0  0  0
 59 60  1  0  0  0  0
 60 61  1  0  0  0  0
 63 64  1  0  0  0  0
 64 65  1  0  0  0  0
 67 68  4  0  0  0  0
 67 72  4  0  0  0  0
 68 69  4  0  0  0  0
 69 70  4  0  0  0  0
 70 71  4  0  0  0  0
 71 72  4  0  0  0  0
M  END
$$$$
