obj06
  PyMOL3.1          3D                             0

 73 79  0  0  0  0  0  0  0  0999 V2000
   17.2787   22.6867   61.4021 C   0  0  0  0  0  0  0  0  0  0  0  0
   16.6009   23.9775   61.0105 C   0  0  0  0  0  0  0  0  0  0  0  0
   16.7536   24.9583   61.9842 O   0  0  0  0  0  0  0  0  0  0  0  0
   18.0573   25.4398   62.2348 C   0  0  0  0  0  0  0  0  0  0  0  0
   15.1469   23.7834   60.8273 C   0  0  0  0  0  0  0  0  0  0  0  0
   14.5333   23.0523   61.7440 N   0  0  0  0  0  0  0  0  0  0  0  0
   13.2345   22.7477   61.6347 C   0  0  0  0  0  0  0  0  0  0  0  0
   12.4946   23.2083   60.5433 C   0  0  0  0  0  0  0  0  0  0  0  0
   13.1202   23.9876   59.5945 C   0  0  0  0  0  0  0  0  0  0  0  0
   14.4471   24.2876   59.7479 C   0  0  0  0  0  0  0  0  0  0  0  0
   15.0758   25.1622   58.7794 C   0  0  0  0  0  0  0  0  0  0  0  0
   15.5236   24.7630   57.5523 N   0  0  0  0  0  0  0  0  0  0  0  0
   15.5415   23.4084   57.0100 C   0  0  0  0  0  0  0  0  0  0  0  0
   14.3921   23.2272   56.0216 C   0  0  0  0  0  0  0  0  0  0  0  0
   15.3471   26.5077   58.9556 C   0  0  0  0  0  0  0  0  0  0  0  0
   15.1571   27.3203   60.2019 C   0  0  0  0  0  0  0  0  0  0  0  0
   13.7892   28.0797   60.3241 C   0  0  0  0  0  0  0  0  0  0  0  0
   12.6229   27.3272   59.7087 C   0  0  0  0  0  0  0  0  0  0  0  0
   13.4701   28.3422   61.8209 C   0  0  0  0  0  0  0  0  0  0  0  0
   13.8812   29.4137   59.6166 C   0  0  0  0  0  0  0  0  0  0  0  0
   15.0077   30.1310   60.0132 O   0  0  0  0  0  0  0  0  0  0  0  0
   15.1543   31.3781   59.5851 C   0  0  0  0  0  0  0  0  0  0  0  0
   16.3949   32.0545   60.0697 C   0  0  0  0  0  0  0  0  0  0  0  0
   16.5732   33.2649   59.3129 N   0  0  0  0  0  0  0  0  0  0  0  0
   17.6692   33.9686   59.6998 N   0  0  0  0  0  0  0  0  0  0  0  0
   18.7370   34.0938   58.8832 C   0  0  0  0  0  0  0  0  0  0  0  0
   18.6397   33.5021   57.4958 C   0  0  0  0  0  0  0  0  0  0  0  0
   19.3329   34.2889   56.5151 N   0  0  0  0  0  0  0  0  0  0  0  0
   18.7835   35.2959   55.8545 C   0  0  0  0  0  0  0  0  0  0  0  0
   19.7082   35.9424   54.8635 C   0  0  0  0  0  0  0  0  0  0  0  0
   19.8973   37.4785   55.0767 C   0  0  0  0  0  0  0  0  0  0  0  0
   20.8430   38.0216   54.0043 C   0  0  0  0  0  0  0  0  0  0  0  0
   20.4969   37.7491   56.4577 C   0  0  0  0  0  0  0  0  0  0  0  0
   19.2253   35.6916   53.5455 N   0  0  0  0  0  0  0  0  0  0  0  0
   19.9478   34.8281   52.7820 C   0  0  0  0  0  0  0  0  0  0  0  0
   19.6682   34.7785   51.3073 C   0  0  0  0  0  0  0  0  0  0  0  0
   20.0761   36.1113   50.7520 C   0  0  0  0  0  0  0  0  0  0  0  0
   19.8497   36.1921   49.2830 C   0  0  0  0  0  0  0  0  0  0  0  0
   20.7368   35.2432   48.7733 N   0  0  0  0  0  0  0  0  0  0  0  0
   21.8665   35.7517   48.2244 C   0  0  0  0  0  0  0  0  0  0  0  0
   23.0535   35.0356   48.3122 C   0  0  0  0  0  0  0  0  0  0  0  0
   23.7268   34.2111   48.0104 C   0  0  0  0  0  0  0  0  0  0  0  0
   25.1514   33.8369   48.3221 C   0  0  0  0  0  0  0  0  0  0  0  0
   25.5274   32.8146   47.3574 N   0  0  0  0  0  0  0  0  0  0  0  0
   25.6887   31.4829   47.8753 C   0  0  0  0  0  0  0  0  0  0  0  0
   26.5444   33.1839   46.3807 C   0  0  0  0  0  0  0  0  0  0  0  0
   26.0510   35.0730   48.1830 C   0  0  0  0  0  0  0  0  0  0  0  0
   25.2621   33.3439   49.7670 C   0  0  0  0  0  0  0  0  0  0  0  0
   21.8919   36.8488   47.7015 O   0  0  0  0  0  0  0  0  0  0  0  0
   20.4018   33.8483   49.1278 C   0  0  0  0  0  0  0  0  0  0  0  0
   20.4845   33.6868   50.6077 C   0  0  0  0  0  0  0  0  0  0  0  0
   20.8334   34.1525   53.2686 O   0  0  0  0  0  0  0  0  0  0  0  0
   17.9982   36.3769   53.1154 C   0  0  0  0  0  0  0  0  0  0  0  0
   17.6244   35.6321   56.0137 O   0  0  0  0  0  0  0  0  0  0  0  0
   19.2803   32.1152   57.5224 C   0  0  0  0  0  0  0  0  0  0  0  0
   18.9651   31.2698   56.3460 C   0  0  0  0  0  0  0  0  0  0  0  0
   17.6283   30.6047   56.5625 C   0  0  0  0  0  0  0  0  0  0  0  0
   17.5246   29.5191   55.6122 N   0  0  0  0  0  0  0  0  0  0  0  0
   17.6622   29.9685   54.2296 C   0  0  0  0  0  0  0  0  0  0  0  0
   18.8773   30.9119   54.0409 C   0  0  0  0  0  0  0  0  0  0  0  0
   18.9292   31.9068   55.0982 O   0  0  0  0  0  0  0  0  0  0  0  0
   19.7691   34.5781   59.2470 O   0  0  0  0  0  0  0  0  0  0  0  0
   17.6389   34.4592   61.0934 C   0  0  0  0  0  0  0  0  0  0  0  0
   17.4983   33.2121   61.9784 C   0  0  0  0  0  0  0  0  0  0  0  0
   16.3080   32.3820   61.5637 C   0  0  0  0  0  0  0  0  0  0  0  0
   14.3586   31.9240   58.8577 O   0  0  0  0  0  0  0  0  0  0  0  0
   15.9486   26.9273   57.7422 C   0  0  0  0  0  0  0  0  0  0  0  0
   16.0308   25.8283   56.8995 C   0  0  0  0  0  0  0  0  0  0  0  0
   16.6239   25.9714   55.6242 C   0  0  0  0  0  0  0  0  0  0  0  0
   17.1080   27.2001   55.2237 C   0  0  0  0  0  0  0  0  0  0  0  0
   17.0145   28.2951   56.0477 C   0  0  0  0  0  0  0  0  0  0  0  0
   16.4440   28.1700   57.3464 C   0  0  0  0  0  0  0  0  0  0  0  0
   18.3461   34.4663   51.0637 F   0  0  0  0  0  0  0  0  0  0  0  0
  1  2  1  0  0  0  0
  2  3  1  0  0  0  0
  2  5  1  0  0  0  0
  3  4  1  0  0  0  0
  5  6  4  0  0  0  0
  5 10  4  0  0  0  0
  6  7  4  0  0  0  0
  7  8  4  0  0  0  0
  8  9  4  0  0  0  0
  9 10  4  0  0  0  0
 10 11  1  0  0  0  0
 11 12  4  0  0  0  0
 11 15  4  0  0  0  0
 12 13  1  0  0  0  0
 12 68  4  0  0  0  0
 13 14  1  0  0  0  0
 15 16  1  0  0  0  0
 15 67  4  0  0  0  0
 16 17  1  0  0  0  0
 17 18  1  0  0  0  0
 17 19  1  0  0  0  0
 17 20  1  0  0  0  0
 20 21  1  0  0  0  0
 21 22  1  0  0  0  0
 22 23  1  0  0  0  0
 22 66  2  0  0  0  0
 23 24  1  0  0  0  0
 23 65  1  0  0  0  0
 24 25  1  0  0  0  0
 25 26  1  0  0  0  0
 25 63  1  0  0  0  0
 26 27  1  0  0  0  0
 26 62  2  0  0  0  0
 27 28  1  0  0  0  0
 27 55  1  0  0  0  0
 28 29  1  0  0  0  0
 29 30  1  0  0  0  0
 29 54  2  0  0  0  0
 30 31  1  0  0  0  0
 30 34  1  0  0  0  0
 31 32  1  0  0  0  0
 31 33  1  0  0  0  0
 34 35  1  0  0  0  0
 34 53  1  0  0  0  0
 35 36  1  0  0  0  0
 35 52  2  0  0  0  0
 36 37  1  0  0  0  0
 36 51  1  0  0  0  0
 36 73  1  0  0  0  0
 37 38  1  0  0  0  0
 38 39  1  0  0  0  0
 39 40  1  0  0  0  0
 39 50  1  0  0  0  0
 40 41  1  0  0  0  0
 40 49  2  0  0  0  0
 41 42  1  0  0  0  0
 42 43  1  0  0  0  0
 43 44  1  0  0  0  0
 43 47  1  0  0  0  0
 43 48  1  0  0  0  0
 44 45  1  0  0  0  0
 44 46  1  0  0  0  0
 50 51  1  0  0  0  0
 55 56  1  0  0  0  0
 56 57  1  0  0  0  0
 56 61  1  0  0  0  0
 57 58  1  0  0  0  0
 58 59  1  0  0  0  0
 58 71  1  0  0  0  0
 59 60  1  0  0  0  0
 60 61  1  0  0  0  0
 63 64  1  0  0  0  0
 64 65  1  0  0  0  0
 67 68  4  0  0  0  0
 67 72  4  0  0  0  0
 68 69  4  0  0  0  0
 69 70  4  0  0  0  0
 70 71  4  0  0  0  0
 71 72  4  0  0  0  0
M  END
$$$$
