obj03
  PyMOL3.1          3D                             0

 73 79  0  0  0  0  0  0  0  0999 V2000
   17.2834   23.3407   61.4316 C   0  0  0  0  0  0  0  0  0  0  0  0
   16.5209   24.5482   60.9441 C   0  0  0  0  0  0  0  0  0  0  0  0
   16.7002   25.6515   61.7804 O   0  0  0  0  0  0  0  0  0  0  0  0
   17.9239   26.3690   61.6670 C   0  0  0  0  0  0  0  0  0  0  0  0
   15.0617   24.2931   60.9040 C   0  0  0  0  0  0  0  0  0  0  0  0
   14.5451   23.5728   61.8917 N   0  0  0  0  0  0  0  0  0  0  0  0
   13.2512   23.2363   61.8928 C   0  0  0  0  0  0  0  0  0  0  0  0
   12.4054   23.6426   60.8512 C   0  0  0  0  0  0  0  0  0  0  0  0
   12.9199   24.4019   59.8357 C   0  0  0  0  0  0  0  0  0  0  0  0
   14.2665   24.7396   59.8698 C   0  0  0  0  0  0  0  0  0  0  0  0
   14.8053   25.5951   58.8410 C   0  0  0  0  0  0  0  0  0  0  0  0
   15.2797   25.1689   57.6275 N   0  0  0  0  0  0  0  0  0  0  0  0
   15.3810   23.7944   57.1462 C   0  0  0  0  0  0  0  0  0  0  0  0
   14.3733   23.5451   56.0347 C   0  0  0  0  0  0  0  0  0  0  0  0
   14.9858   26.9669   58.9591 C   0  0  0  0  0  0  0  0  0  0  0  0
   14.6923   27.8158   60.1488 C   0  0  0  0  0  0  0  0  0  0  0  0
   13.2777   28.4747   60.1967 C   0  0  0  0  0  0  0  0  0  0  0  0
   12.7160   28.4087   61.6432 C   0  0  0  0  0  0  0  0  0  0  0  0
   12.2940   27.8083   59.2593 C   0  0  0  0  0  0  0  0  0  0  0  0
   13.3508   29.9363   59.7847 C   0  0  0  0  0  0  0  0  0  0  0  0
   14.5682   30.5345   60.0956 O   0  0  0  0  0  0  0  0  0  0  0  0
   14.7842   31.7915   59.7289 C   0  0  0  0  0  0  0  0  0  0  0  0
   16.1168   32.3126   60.1393 C   0  0  0  0  0  0  0  0  0  0  0  0
   16.3845   33.5278   59.4068 N   0  0  0  0  0  0  0  0  0  0  0  0
   17.5412   34.1345   59.7894 N   0  0  0  0  0  0  0  0  0  0  0  0
   18.5920   34.2367   58.9611 C   0  0  0  0  0  0  0  0  0  0  0  0
   18.4452   33.7023   57.5509 C   0  0  0  0  0  0  0  0  0  0  0  0
   19.2145   34.4653   56.6087 N   0  0  0  0  0  0  0  0  0  0  0  0
   18.7525   35.5055   55.9487 C   0  0  0  0  0  0  0  0  0  0  0  0
   19.7205   36.1252   54.9972 C   0  0  0  0  0  0  0  0  0  0  0  0
   19.9928   37.6429   55.2076 C   0  0  0  0  0  0  0  0  0  0  0  0
   20.6147   37.8937   56.5754 C   0  0  0  0  0  0  0  0  0  0  0  0
   20.9635   38.1270   54.1262 C   0  0  0  0  0  0  0  0  0  0  0  0
   19.2338   35.9162   53.6584 N   0  0  0  0  0  0  0  0  0  0  0  0
   19.8892   35.0232   52.8939 C   0  0  0  0  0  0  0  0  0  0  0  0
   19.6152   35.0073   51.4215 C   0  0  0  0  0  0  0  0  0  0  0  0
   20.1372   36.3079   50.8843 C   0  0  0  0  0  0  0  0  0  0  0  0
   19.8755   36.4434   49.4369 C   0  0  0  0  0  0  0  0  0  0  0  0
   20.6135   35.3936   48.8615 N   0  0  0  0  0  0  0  0  0  0  0  0
   21.7284   35.7789   48.1963 C   0  0  0  0  0  0  0  0  0  0  0  0
   22.7900   34.8825   48.0713 C   0  0  0  0  0  0  0  0  0  0  0  0
   23.2749   33.9351   47.7213 C   0  0  0  0  0  0  0  0  0  0  0  0
   24.6865   33.4090   47.8384 C   0  0  0  0  0  0  0  0  0  0  0  0
   25.5171   34.3514   48.6412 N   0  0  0  0  0  0  0  0  0  0  0  0
   25.1229   34.4114   50.0434 C   0  0  0  0  0  0  0  0  0  0  0  0
   26.9723   34.1638   48.5202 C   0  0  0  0  0  0  0  0  0  0  0  0
   24.7074   32.0299   48.5013 C   0  0  0  0  0  0  0  0  0  0  0  0
   25.2495   33.2923   46.4262 C   0  0  0  0  0  0  0  0  0  0  0  0
   21.8559   36.8987   47.7622 O   0  0  0  0  0  0  0  0  0  0  0  0
   20.1749   34.0310   49.2246 C   0  0  0  0  0  0  0  0  0  0  0  0
   20.3202   33.8579   50.6913 C   0  0  0  0  0  0  0  0  0  0  0  0
   20.7285   34.2672   53.3627 O   0  0  0  0  0  0  0  0  0  0  0  0
   18.0652   36.6937   53.2288 C   0  0  0  0  0  0  0  0  0  0  0  0
   17.5964   35.9051   56.0895 O   0  0  0  0  0  0  0  0  0  0  0  0
   18.9706   32.2884   57.5140 C   0  0  0  0  0  0  0  0  0  0  0  0
   18.5981   31.5472   56.2906 C   0  0  0  0  0  0  0  0  0  0  0  0
   17.2220   30.9791   56.5047 C   0  0  0  0  0  0  0  0  0  0  0  0
   17.0555   29.9262   55.5447 N   0  0  0  0  0  0  0  0  0  0  0  0
   17.1911   30.3871   54.1709 C   0  0  0  0  0  0  0  0  0  0  0  0
   18.4341   31.2945   53.9813 C   0  0  0  0  0  0  0  0  0  0  0  0
   18.5622   32.2447   55.0747 O   0  0  0  0  0  0  0  0  0  0  0  0
   19.6575   34.6522   59.3204 O   0  0  0  0  0  0  0  0  0  0  0  0
   17.5962   34.5512   61.2051 C   0  0  0  0  0  0  0  0  0  0  0  0
   17.4080   33.2796   62.0349 C   0  0  0  0  0  0  0  0  0  0  0  0
   16.1390   32.5718   61.6510 C   0  0  0  0  0  0  0  0  0  0  0  0
   13.9745   32.4528   59.1327 O   0  0  0  0  0  0  0  0  0  0  0  0
   15.5799   27.3604   57.7381 C   0  0  0  0  0  0  0  0  0  0  0  0
   15.7271   26.2397   56.9363 C   0  0  0  0  0  0  0  0  0  0  0  0
   16.3150   26.3607   55.6566 C   0  0  0  0  0  0  0  0  0  0  0  0
   16.7455   27.5892   55.2095 C   0  0  0  0  0  0  0  0  0  0  0  0
   16.5958   28.7045   56.0037 C   0  0  0  0  0  0  0  0  0  0  0  0
   16.0207   28.6009   57.2974 C   0  0  0  0  0  0  0  0  0  0  0  0
   18.2759   34.8163   51.1765 F   0  0  0  0  0  0  0  0  0  0  0  0
  1  2  1  0  0  0  0
  2  3  1  0  0  0  0
  2  5  1  0  0  0  0
  3  4  1  0  0  0  0
  5  6  4  0  0  0  0
  5 10  4  0  0  0  0
  6  7  4  0  0  0  0
  7  8  4  0  0  0  0
  8  9  4  0  0  0  0
  9 10  4  0  0  0  0
 10 11  1  0  0  0  0
 11 12  4  0  0  0  0
 11 15  4  0  0  0  0
 12 13  1  0  0  0  0
 12 68  4  0  0  0  0
 13 14  1  0  0  0  0
 15 16  1  0  0  0  0
 15 67  4  0  0  0  0
 16 17  1  0  0  0  0
 17 18  1  0  0  0  0
 17 19  1  0  0  0  0
 17 20  1  0  0  0  0
 20 21  1  0  0  0  0
 21 22  1  0  0  0  0
 22 23  1  0  0  0  0
 22 66  2  0  0  0  0
 23 24  1  0  0  0  0
 23 65  1  0  0  0  0
 24 25  1  0  0  0  0
 25 26  1  0  0  0  0
 25 63  1  0  0  0  0
 26 27  1  0  0  0  0
 26 62  2  0  0  0  0
 27 28  1  0  0  0  0
 27 55  1  0  0  0  0
 28 29  1  0  0  0  0
 29 30  1  0  0  0  0
 29 54  2  0  0  0  0
 30 31  1  0  0  0  0
 30 34  1  0  0  0  0
 31 32  1  0  0  0  0
 31 33  1  0  0  0  0
 34 35  1  0  0  0  0
 34 53  1  0  0  0  0
 35 36  1  0  0  0  0
 35 52  2  0  0  0  0
 36 37  1  0  0  0  0
 36 51  1  0  0  0  0
 36 73  1  0  0  0  0
 37 38  1  0  0  0  0
 38 39  1  0  0  0  0
 39 40  1  0  0  0  0
 39 50  1  0  0  0  0
 40 41  1  0  0  0  0
 40 49  2  0  0  0  0
 41 42  1  0  0  0  0
 42 43  1  0  0  0  0
 43 44  1  0  0  0  0
 43 47  1  0  0  0  0
 43 48  1  0  0  0  0
 44 45  1  0  0  0  0
 44 46  1  0  0  0  0
 50 51  1  0  0  0  0
 55 56  1  0  0  0  0
 56 57  1  0  0  0  0
 56 61  1  0  0  0  0
 57 58  1  0  0  0  0
 58 59  1  0  0  0  0
 58 71  1  0  0  0  0
 59 60  1  0  0  0  0
 60 61  1  0  0  0  0
 63 64  1  0  0  0  0
 64 65  1  0  0  0  0
 67 68  4  0  0  0  0
 67 72  4  0  0  0  0
 68 69  4  0  0  0  0
 69 70  4  0  0  0  0
 70 71  4  0  0  0  0
 71 72  4  0  0  0  0
M  END
$$$$
