obj18
  PyMOL3.1          3D                             0

 73 79  0  0  0  0  0  0  0  0999 V2000
    9.9256   25.7530   54.2179 C   0  0  0  0  0  0  0  0  0  0  0  0
   10.1230   27.2419   54.3430 C   0  0  0  0  0  0  0  0  0  0  0  0
    9.7676   27.9209   53.1648 O   0  0  0  0  0  0  0  0  0  0  0  0
   10.7271   27.9485   52.1168 C   0  0  0  0  0  0  0  0  0  0  0  0
    9.3383   27.8293   55.4461 C   0  0  0  0  0  0  0  0  0  0  0  0
    8.2273   27.2276   55.8345 N   0  0  0  0  0  0  0  0  0  0  0  0
    7.4689   27.7419   56.8035 C   0  0  0  0  0  0  0  0  0  0  0  0
    7.8405   28.9172   57.4515 C   0  0  0  0  0  0  0  0  0  0  0  0
    8.9806   29.5425   57.0616 C   0  0  0  0  0  0  0  0  0  0  0  0
    9.7191   29.0054   56.0525 C   0  0  0  0  0  0  0  0  0  0  0  0
   10.9331   29.6451   55.6544 C   0  0  0  0  0  0  0  0  0  0  0  0
   11.0095   30.5894   54.6717 N   0  0  0  0  0  0  0  0  0  0  0  0
    9.9203   31.1901   53.9012 C   0  0  0  0  0  0  0  0  0  0  0  0
    9.6063   32.5895   54.4496 C   0  0  0  0  0  0  0  0  0  0  0  0
   12.2058   29.3482   56.1331 C   0  0  0  0  0  0  0  0  0  0  0  0
   12.6577   28.4106   57.2025 C   0  0  0  0  0  0  0  0  0  0  0  0
   12.7803   29.0237   58.6394 C   0  0  0  0  0  0  0  0  0  0  0  0
   13.9289   28.3119   59.3570 C   0  0  0  0  0  0  0  0  0  0  0  0
   11.4961   28.7904   59.4502 C   0  0  0  0  0  0  0  0  0  0  0  0
   13.0279   30.5297   58.6742 C   0  0  0  0  0  0  0  0  0  0  0  0
   14.1999   30.9361   59.3172 O   0  0  0  0  0  0  0  0  0  0  0  0
   14.5014   32.2591   59.2811 C   0  0  0  0  0  0  0  0  0  0  0  0
   15.8309   32.6178   59.8779 C   0  0  0  0  0  0  0  0  0  0  0  0
   16.2881   33.8415   59.2411 N   0  0  0  0  0  0  0  0  0  0  0  0
   17.4930   34.2958   59.7198 N   0  0  0  0  0  0  0  0  0  0  0  0
   18.5844   34.3414   58.9107 C   0  0  0  0  0  0  0  0  0  0  0  0
   18.3807   33.9434   57.4756 C   0  0  0  0  0  0  0  0  0  0  0  0
   19.2144   34.7169   56.5788 N   0  0  0  0  0  0  0  0  0  0  0  0
   18.7356   35.6530   55.7653 C   0  0  0  0  0  0  0  0  0  0  0  0
   19.7218   36.1768   54.7824 C   0  0  0  0  0  0  0  0  0  0  0  0
   20.0160   37.6949   54.9360 C   0  0  0  0  0  0  0  0  0  0  0  0
   20.9594   38.1504   53.8356 C   0  0  0  0  0  0  0  0  0  0  0  0
   20.6504   37.9662   56.3080 C   0  0  0  0  0  0  0  0  0  0  0  0
   19.2356   35.8697   53.4629 N   0  0  0  0  0  0  0  0  0  0  0  0
   19.8806   34.9174   52.7555 C   0  0  0  0  0  0  0  0  0  0  0  0
   19.5696   34.7248   51.2915 C   0  0  0  0  0  0  0  0  0  0  0  0
   20.6865   33.9703   50.5854 C   0  0  0  0  0  0  0  0  0  0  0  0
   20.4649   33.9723   49.1207 C   0  0  0  0  0  0  0  0  0  0  0  0
   20.2367   35.3473   48.6593 N   0  0  0  0  0  0  0  0  0  0  0  0
   21.0043   36.0699   47.8184 C   0  0  0  0  0  0  0  0  0  0  0  0
   22.1733   35.5334   47.3347 C   0  0  0  0  0  0  0  0  0  0  0  0
   23.1448   35.2404   46.8486 C   0  0  0  0  0  0  0  0  0  0  0  0
   24.3901   34.7493   46.3443 C   0  0  0  0  0  0  0  0  0  0  0  0
   25.4240   35.7957   46.5321 N   0  0  0  0  0  0  0  0  0  0  0  0
   25.6544   36.1212   47.9555 C   0  0  0  0  0  0  0  0  0  0  0  0
   25.1890   37.0034   45.7242 C   0  0  0  0  0  0  0  0  0  0  0  0
   24.7967   33.4646   47.0980 C   0  0  0  0  0  0  0  0  0  0  0  0
   24.1822   34.4338   44.8626 C   0  0  0  0  0  0  0  0  0  0  0  0
   20.6960   37.2073   47.4929 O   0  0  0  0  0  0  0  0  0  0  0  0
   19.1598   36.0228   49.2435 C   0  0  0  0  0  0  0  0  0  0  0  0
   19.5158   36.1034   50.6669 C   0  0  0  0  0  0  0  0  0  0  0  0
   20.7433   34.2101   53.2897 O   0  0  0  0  0  0  0  0  0  0  0  0
   18.0347   36.6160   53.0108 C   0  0  0  0  0  0  0  0  0  0  0  0
   17.5728   35.9988   55.7967 O   0  0  0  0  0  0  0  0  0  0  0  0
   18.7675   32.4544   57.3082 C   0  0  0  0  0  0  0  0  0  0  0  0
   18.3686   31.9526   55.9295 C   0  0  0  0  0  0  0  0  0  0  0  0
   16.8818   31.7310   55.9434 C   0  0  0  0  0  0  0  0  0  0  0  0
   16.4547   31.1414   54.6569 N   0  0  0  0  0  0  0  0  0  0  0  0
   17.2094   29.8841   54.3920 C   0  0  0  0  0  0  0  0  0  0  0  0
   18.6968   30.2009   54.3393 C   0  0  0  0  0  0  0  0  0  0  0  0
   19.0761   30.7659   55.6211 O   0  0  0  0  0  0  0  0  0  0  0  0
   19.6828   34.6135   59.3137 O   0  0  0  0  0  0  0  0  0  0  0  0
   17.5188   34.6041   61.1450 C   0  0  0  0  0  0  0  0  0  0  0  0
   17.0717   33.3541   61.9207 C   0  0  0  0  0  0  0  0  0  0  0  0
   15.7414   32.8435   61.3923 C   0  0  0  0  0  0  0  0  0  0  0  0
   13.7661   33.0649   58.7698 O   0  0  0  0  0  0  0  0  0  0  0  0
   13.0479   30.1412   55.3969 C   0  0  0  0  0  0  0  0  0  0  0  0
   12.2919   30.9073   54.5181 C   0  0  0  0  0  0  0  0  0  0  0  0
   12.9535   31.8107   53.6526 C   0  0  0  0  0  0  0  0  0  0  0  0
   14.3361   31.8898   53.7314 C   0  0  0  0  0  0  0  0  0  0  0  0
   15.0694   31.0627   54.6150 C   0  0  0  0  0  0  0  0  0  0  0  0
   14.4267   30.1980   55.4448 C   0  0  0  0  0  0  0  0  0  0  0  0
   18.3596   34.0552   51.1716 F   0  0  0  0  0  0  0  0  0  0  0  0
  1  2  1  0  0  0  0
  2  3  1  0  0  0  0
  2  5  1  0  0  0  0
  3  4  1  0  0  0  0
  5  6  4  0  0  0  0
  5 10  4  0  0  0  0
  6  7  4  0  0  0  0
  7  8  4  0  0  0  0
  8  9  4  0  0  0  0
  9 10  4  0  0  0  0
 10 11  1  0  0  0  0
 11 12  4  0  0  0  0
 11 15  4  0  0  0  0
 12 13  1  0  0  0  0
 12 68  4  0  0  0  0
 13 14  1  0  0  0  0
 15 16  1  0  0  0  0
 15 67  4  0  0  0  0
 16 17  1  0  0  0  0
 17 18  1  0  0  0  0
 17 19  1  0  0  0  0
 17 20  1  0  0  0  0
 20 21  1  0  0  0  0
 21 22  1  0  0  0  0
 22 23  1  0  0  0  0
 22 66  2  0  0  0  0
 23 24  1  0  0  0  0
 23 65  1  0  0  0  0
 24 25  1  0  0  0  0
 25 26  1  0  0  0  0
 25 63  1  0  0  0  0
 26 27  1  0  0  0  0
 26 62  2  0  0  0  0
 27 28  1  0  0  0  0
 27 55  1  0  0  0  0
 28 29  1  0  0  0  0
 29 30  1  0  0  0  0
 29 54  2  0  0  0  0
 30 31  1  0  0  0  0
 30 34  1  0  0  0  0
 31 32  1  0  0  0  0
 31 33  1  0  0  0  0
 34 35  1  0  0  0  0
 34 53  1  0  0  0  0
 35 36  1  0  0  0  0
 35 52  2  0  0  0  0
 36 37  1  0  0  0  0
 36 51  1  0  0  0  0
 36 73  1  0  0  0  0
 37 38  1  0  0  0  0
 38 39  1  0  0  0  0
 39 40  1  0  0  0  0
 39 50  1  0  0  0  0
 40 41  1  0  0  0  0
 40 49  2  0  0  0  0
 41 42  1  0  0  0  0
 42 43  1  0  0  0  0
 43 44  1  0  0  0  0
 43 47  1  0  0  0  0
 43 48  1  0  0  0  0
 44 45  1  0  0  0  0
 44 46  1  0  0  0  0
 50 51  1  0  0  0  0
 55 56  1  0  0  0  0
 56 57  1  0  0  0  0
 56 61  1  0  0  0  0
 57 58  1  0  0  0  0
 58 59  1  0  0  0  0
 58 71  1  0  0  0  0
 59 60  1  0  0  0  0
 60 61  1  0  0  0  0
 63 64  1  0  0  0  0
 64 65  1  0  0  0  0
 67 68  4  0  0  0  0
 67 72  4  0  0  0  0
 68 69  4  0  0  0  0
 69 70  4  0  0  0  0
 70 71  4  0  0  0  0
 71 72  4  0  0  0  0
M  END
$$$$
