obj17
  PyMOL3.1          3D                             0

 73 79  0  0  0  0  0  0  0  0999 V2000
   10.1948   25.4257   55.0193 C   0  0  0  0  0  0  0  0  0  0  0  0
   10.1979   26.9230   54.8051 C   0  0  0  0  0  0  0  0  0  0  0  0
    9.7572   27.3428   53.5438 O   0  0  0  0  0  0  0  0  0  0  0  0
   10.6850   27.2725   52.4732 C   0  0  0  0  0  0  0  0  0  0  0  0
    9.3768   27.6350   55.8225 C   0  0  0  0  0  0  0  0  0  0  0  0
    8.2347   27.0961   56.2117 N   0  0  0  0  0  0  0  0  0  0  0  0
    7.4528   27.7304   57.0973 C   0  0  0  0  0  0  0  0  0  0  0  0
    7.8267   28.9547   57.6522 C   0  0  0  0  0  0  0  0  0  0  0  0
    9.0074   29.5083   57.2496 C   0  0  0  0  0  0  0  0  0  0  0  0
    9.7722   28.8508   56.3300 C   0  0  0  0  0  0  0  0  0  0  0  0
   11.0171   29.4240   55.9139 C   0  0  0  0  0  0  0  0  0  0  0  0
   11.1397   30.2996   54.8613 N   0  0  0  0  0  0  0  0  0  0  0  0
   10.0818   30.8553   54.0158 C   0  0  0  0  0  0  0  0  0  0  0  0
    9.7658   32.2986   54.4398 C   0  0  0  0  0  0  0  0  0  0  0  0
   12.2765   29.1274   56.4350 C   0  0  0  0  0  0  0  0  0  0  0  0
   12.6802   28.2296   57.5692 C   0  0  0  0  0  0  0  0  0  0  0  0
   12.7962   28.9168   58.9688 C   0  0  0  0  0  0  0  0  0  0  0  0
   13.9498   28.2386   59.7219 C   0  0  0  0  0  0  0  0  0  0  0  0
   11.4950   28.6853   59.7807 C   0  0  0  0  0  0  0  0  0  0  0  0
   13.0210   30.4162   58.9337 C   0  0  0  0  0  0  0  0  0  0  0  0
   14.2148   30.8674   59.5204 O   0  0  0  0  0  0  0  0  0  0  0  0
   14.5130   32.1941   59.4111 C   0  0  0  0  0  0  0  0  0  0  0  0
   15.8458   32.5877   59.9921 C   0  0  0  0  0  0  0  0  0  0  0  0
   16.2781   33.8116   59.3325 N   0  0  0  0  0  0  0  0  0  0  0  0
   17.4837   34.2940   59.8021 N   0  0  0  0  0  0  0  0  0  0  0  0
   18.5860   34.3355   58.9937 C   0  0  0  0  0  0  0  0  0  0  0  0
   18.4042   33.8969   57.5671 C   0  0  0  0  0  0  0  0  0  0  0  0
   19.2305   34.6384   56.6315 N   0  0  0  0  0  0  0  0  0  0  0  0
   18.7373   35.5312   55.7510 C   0  0  0  0  0  0  0  0  0  0  0  0
   19.7296   36.0068   54.7278 C   0  0  0  0  0  0  0  0  0  0  0  0
   20.0196   37.5270   54.7846 C   0  0  0  0  0  0  0  0  0  0  0  0
   21.0230   37.9083   53.6967 C   0  0  0  0  0  0  0  0  0  0  0  0
   20.5786   37.8983   56.1675 C   0  0  0  0  0  0  0  0  0  0  0  0
   19.2346   35.5729   53.4300 N   0  0  0  0  0  0  0  0  0  0  0  0
   19.7371   34.4068   52.9162 C   0  0  0  0  0  0  0  0  0  0  0  0
   19.3051   33.9154   51.5489 C   0  0  0  0  0  0  0  0  0  0  0  0
   20.4744   33.3221   50.7881 C   0  0  0  0  0  0  0  0  0  0  0  0
   19.9897   32.8971   49.4706 C   0  0  0  0  0  0  0  0  0  0  0  0
   18.8606   31.9664   49.6193 N   0  0  0  0  0  0  0  0  0  0  0  0
   18.8442   30.7722   49.0114 C   0  0  0  0  0  0  0  0  0  0  0  0
   19.8907   30.4976   48.1383 C   0  0  0  0  0  0  0  0  0  0  0  0
   20.7037   30.2056   47.3748 C   0  0  0  0  0  0  0  0  0  0  0  0
   21.8228   29.9706   46.5016 C   0  0  0  0  0  0  0  0  0  0  0  0
   22.7449   29.0154   47.1572 N   0  0  0  0  0  0  0  0  0  0  0  0
   23.2612   29.5030   48.4535 C   0  0  0  0  0  0  0  0  0  0  0  0
   22.1911   27.6504   47.2732 C   0  0  0  0  0  0  0  0  0  0  0  0
   22.5705   31.2934   46.2232 C   0  0  0  0  0  0  0  0  0  0  0  0
   21.2729   29.4129   45.1965 C   0  0  0  0  0  0  0  0  0  0  0  0
   17.9407   29.9731   49.1993 O   0  0  0  0  0  0  0  0  0  0  0  0
   17.7216   32.3805   50.4330 C   0  0  0  0  0  0  0  0  0  0  0  0
   18.2094   32.8650   51.7548 C   0  0  0  0  0  0  0  0  0  0  0  0
   20.5603   33.7392   53.5578 O   0  0  0  0  0  0  0  0  0  0  0  0
   18.1675   36.3883   52.8091 C   0  0  0  0  0  0  0  0  0  0  0  0
   17.5585   35.8684   55.7435 O   0  0  0  0  0  0  0  0  0  0  0  0
   18.8316   32.4027   57.5132 C   0  0  0  0  0  0  0  0  0  0  0  0
   18.4737   31.7677   56.1778 C   0  0  0  0  0  0  0  0  0  0  0  0
   16.9827   31.5307   56.1710 C   0  0  0  0  0  0  0  0  0  0  0  0
   16.5983   30.8039   54.9399 N   0  0  0  0  0  0  0  0  0  0  0  0
   17.3641   29.5296   54.8278 C   0  0  0  0  0  0  0  0  0  0  0  0
   18.8628   29.8475   54.7917 C   0  0  0  0  0  0  0  0  0  0  0  0
   19.1929   30.5465   56.0180 O   0  0  0  0  0  0  0  0  0  0  0  0
   19.6890   34.6293   59.3934 O   0  0  0  0  0  0  0  0  0  0  0  0
   17.5040   34.6249   61.2231 C   0  0  0  0  0  0  0  0  0  0  0  0
   17.0761   33.3632   62.0206 C   0  0  0  0  0  0  0  0  0  0  0  0
   15.7578   32.8262   61.5064 C   0  0  0  0  0  0  0  0  0  0  0  0
   13.7746   32.9828   58.8611 O   0  0  0  0  0  0  0  0  0  0  0  0
   13.1555   29.8592   55.6689 C   0  0  0  0  0  0  0  0  0  0  0  0
   12.4361   30.5840   54.7190 C   0  0  0  0  0  0  0  0  0  0  0  0
   13.1335   31.4280   53.8106 C   0  0  0  0  0  0  0  0  0  0  0  0
   14.5180   31.5008   53.9188 C   0  0  0  0  0  0  0  0  0  0  0  0
   15.2124   30.7242   54.8707 C   0  0  0  0  0  0  0  0  0  0  0  0
   14.5422   29.9102   55.7451 C   0  0  0  0  0  0  0  0  0  0  0  0
   18.8116   34.9258   50.7671 F   0  0  0  0  0  0  0  0  0  0  0  0
  1  2  1  0  0  0  0
  2  3  1  0  0  0  0
  2  5  1  0  0  0  0
  3  4  1  0  0  0  0
  5  6  4  0  0  0  0
  5 10  4  0  0  0  0
  6  7  4  0  0  0  0
  7  8  4  0  0  0  0
  8  9  4  0  0  0  0
  9 10  4  0  0  0  0
 10 11  1  0  0  0  0
 11 12  4  0  0  0  0
 11 15  4  0  0  0  0
 12 13  1  0  0  0  0
 12 68  4  0  0  0  0
 13 14  1  0  0  0  0
 15 16  1  0  0  0  0
 15 67  4  0  0  0  0
 16 17  1  0  0  0  0
 17 18  1  0  0  0  0
 17 19  1  0  0  0  0
 17 20  1  0  0  0  0
 20 21  1  0  0  0  0
 21 22  1  0  0  0  0
 22 23  1  0  0  0  0
 22 66  2  0  0  0  0
 23 24  1  0  0  0  0
 23 65  1  0  0  0  0
 24 25  1  0  0  0  0
 25 26  1  0  0  0  0
 25 63  1  0  0  0  0
 26 27  1  0  0  0  0
 26 62  2  0  0  0  0
 27 28  1  0  0  0  0
 27 55  1  0  0  0  0
 28 29  1  0  0  0  0
 29 30  1  0  0  0  0
 29 54  2  0  0  0  0
 30 31  1  0  0  0  0
 30 34  1  0  0  0  0
 31 32  1  0  0  0  0
 31 33  1  0  0  0  0
 34 35  1  0  0  0  0
 34 53  1  0  0  0  0
 35 36  1  0  0  0  0
 35 52  2  0  0  0  0
 36 37  1  0  0  0  0
 36 51  1  0  0  0  0
 36 73  1  0  0  0  0
 37 38  1  0  0  0  0
 38 39  1  0  0  0  0
 39 40  1  0  0  0  0
 39 50  1  0  0  0  0
 40 41  1  0  0  0  0
 40 49  2  0  0  0  0
 41 42  1  0  0  0  0
 42 43  1  0  0  0  0
 43 44  1  0  0  0  0
 43 47  1  0  0  0  0
 43 48  1  0  0  0  0
 44 45  1  0  0  0  0
 44 46  1  0  0  0  0
 50 51  1  0  0  0  0
 55 56  1  0  0  0  0
 56 57  1  0  0  0  0
 56 61  1  0  0  0  0
 57 58  1  0  0  0  0
 58 59  1  0  0  0  0
 58 71  1  0  0  0  0
 59 60  1  0  0  0  0
 60 61  1  0  0  0  0
 63 64  1  0  0  0  0
 64 65  1  0  0  0  0
 67 68  4  0  0  0  0
 67 72  4  0  0  0  0
 68 69  4  0  0  0  0
 69 70  4  0  0  0  0
 70 71  4  0  0  0  0
 71 72  4  0  0  0  0
M  END
$$$$
