obj15
  PyMOL3.1          3D                             0

 73 79  0  0  0  0  0  0  0  0999 V2000
   14.8567   23.0021   60.3817 C   0  0  0  0  0  0  0  0  0  0  0  0
   14.4622   24.4190   60.0116 C   0  0  0  0  0  0  0  0  0  0  0  0
   14.4535   25.2735   61.1260 O   0  0  0  0  0  0  0  0  0  0  0  0
   15.7093   25.6357   61.6990 C   0  0  0  0  0  0  0  0  0  0  0  0
   13.0869   24.4575   59.4327 C   0  0  0  0  0  0  0  0  0  0  0  0
   12.1313   23.8420   60.1309 N   0  0  0  0  0  0  0  0  0  0  0  0
   10.8873   23.7496   59.6487 C   0  0  0  0  0  0  0  0  0  0  0  0
   10.5489   24.3001   58.4057 C   0  0  0  0  0  0  0  0  0  0  0  0
   11.5241   24.9570   57.6836 C   0  0  0  0  0  0  0  0  0  0  0  0
   12.7880   25.0508   58.2055 C   0  0  0  0  0  0  0  0  0  0  0  0
   13.7905   25.7952   57.4802 C   0  0  0  0  0  0  0  0  0  0  0  0
   14.3999   25.3761   56.3295 N   0  0  0  0  0  0  0  0  0  0  0  0
   14.1534   24.1397   55.5880 C   0  0  0  0  0  0  0  0  0  0  0  0
   15.2319   23.0859   55.9235 C   0  0  0  0  0  0  0  0  0  0  0  0
   14.3054   27.0331   57.8479 C   0  0  0  0  0  0  0  0  0  0  0  0
   13.9354   27.8345   59.0590 C   0  0  0  0  0  0  0  0  0  0  0  0
   12.7563   28.8621   58.8382 C   0  0  0  0  0  0  0  0  0  0  0  0
   11.7216   28.3705   57.8410 C   0  0  0  0  0  0  0  0  0  0  0  0
   12.0474   29.1781   60.1868 C   0  0  0  0  0  0  0  0  0  0  0  0
   13.3289   30.1435   58.3084 C   0  0  0  0  0  0  0  0  0  0  0  0
   14.4215   30.6045   59.0683 O   0  0  0  0  0  0  0  0  0  0  0  0
   14.7172   31.8971   59.0178 C   0  0  0  0  0  0  0  0  0  0  0  0
   15.9906   32.2963   59.7025 C   0  0  0  0  0  0  0  0  0  0  0  0
   16.3869   33.5606   59.1362 N   0  0  0  0  0  0  0  0  0  0  0  0
   17.5367   34.0768   59.6547 N   0  0  0  0  0  0  0  0  0  0  0  0
   18.6479   34.2117   58.8847 C   0  0  0  0  0  0  0  0  0  0  0  0
   18.5541   33.7267   57.4602 C   0  0  0  0  0  0  0  0  0  0  0  0
   19.3051   34.4963   56.4984 N   0  0  0  0  0  0  0  0  0  0  0  0
   18.7943   35.4688   55.7502 C   0  0  0  0  0  0  0  0  0  0  0  0
   19.7273   35.9747   54.6831 C   0  0  0  0  0  0  0  0  0  0  0  0
   20.0516   37.4853   54.7458 C   0  0  0  0  0  0  0  0  0  0  0  0
   20.9978   37.8527   53.6067 C   0  0  0  0  0  0  0  0  0  0  0  0
   20.7002   37.8361   56.0875 C   0  0  0  0  0  0  0  0  0  0  0  0
   19.1339   35.6241   53.3826 N   0  0  0  0  0  0  0  0  0  0  0  0
   19.6206   34.5137   52.7265 C   0  0  0  0  0  0  0  0  0  0  0  0
   19.2247   34.1067   51.3152 C   0  0  0  0  0  0  0  0  0  0  0  0
   20.3359   34.6045   50.4122 C   0  0  0  0  0  0  0  0  0  0  0  0
   20.1186   34.3071   48.9635 C   0  0  0  0  0  0  0  0  0  0  0  0
   18.8928   34.9333   48.5485 N   0  0  0  0  0  0  0  0  0  0  0  0
   18.8413   36.0971   47.7614 C   0  0  0  0  0  0  0  0  0  0  0  0
   19.9791   36.9821   47.6877 C   0  0  0  0  0  0  0  0  0  0  0  0
   21.1028   37.2790   47.2984 C   0  0  0  0  0  0  0  0  0  0  0  0
   21.9186   38.5489   47.4765 C   0  0  0  0  0  0  0  0  0  0  0  0
   22.1720   38.8758   48.9054 N   0  0  0  0  0  0  0  0  0  0  0  0
   22.5369   37.7452   49.7416 C   0  0  0  0  0  0  0  0  0  0  0  0
   23.0602   40.0263   49.1390 C   0  0  0  0  0  0  0  0  0  0  0  0
   23.2521   38.3823   46.7542 C   0  0  0  0  0  0  0  0  0  0  0  0
   21.1561   39.7387   46.8785 C   0  0  0  0  0  0  0  0  0  0  0  0
   17.8531   36.4115   47.1572 O   0  0  0  0  0  0  0  0  0  0  0  0
   17.7280   34.3541   49.2205 C   0  0  0  0  0  0  0  0  0  0  0  0
   17.8866   34.5895   50.7632 C   0  0  0  0  0  0  0  0  0  0  0  0
   20.4830   33.8446   53.2831 O   0  0  0  0  0  0  0  0  0  0  0  0
   18.0622   36.4722   52.9032 C   0  0  0  0  0  0  0  0  0  0  0  0
   17.6416   35.8734   55.8901 O   0  0  0  0  0  0  0  0  0  0  0  0
   19.1362   32.3156   57.4723 C   0  0  0  0  0  0  0  0  0  0  0  0
   18.9328   31.6232   56.1819 C   0  0  0  0  0  0  0  0  0  0  0  0
   17.9524   30.5189   56.4504 C   0  0  0  0  0  0  0  0  0  0  0  0
   17.9453   29.5167   55.4182 N   0  0  0  0  0  0  0  0  0  0  0  0
   19.2784   29.2040   54.8569 C   0  0  0  0  0  0  0  0  0  0  0  0
   20.1311   30.4288   54.5585 C   0  0  0  0  0  0  0  0  0  0  0  0
   20.1866   31.2093   55.7611 O   0  0  0  0  0  0  0  0  0  0  0  0
   19.6976   34.6025   59.3038 O   0  0  0  0  0  0  0  0  0  0  0  0
   17.4932   34.3673   61.0967 C   0  0  0  0  0  0  0  0  0  0  0  0
   17.1205   33.0390   61.8055 C   0  0  0  0  0  0  0  0  0  0  0  0
   15.8471   32.4383   61.2237 C   0  0  0  0  0  0  0  0  0  0  0  0
   14.0135   32.6747   58.4273 O   0  0  0  0  0  0  0  0  0  0  0  0
   15.2901   27.3311   56.8754 C   0  0  0  0  0  0  0  0  0  0  0  0
   15.3143   26.3047   55.9510 C   0  0  0  0  0  0  0  0  0  0  0  0
   16.2187   26.3523   54.8684 C   0  0  0  0  0  0  0  0  0  0  0  0
   17.0706   27.4254   54.7283 C   0  0  0  0  0  0  0  0  0  0  0  0
   17.0633   28.4478   55.6376 C   0  0  0  0  0  0  0  0  0  0  0  0
   16.1504   28.4222   56.7387 C   0  0  0  0  0  0  0  0  0  0  0  0
   19.1094   32.7380   51.2933 F   0  0  0  0  0  0  0  0  0  0  0  0
  1  2  1  0  0  0  0
  2  3  1  0  0  0  0
  2  5  1  0  0  0  0
  3  4  1  0  0  0  0
  5  6  4  0  0  0  0
  5 10  4  0  0  0  0
  6  7  4  0  0  0  0
  7  8  4  0  0  0  0
  8  9  4  0  0  0  0
  9 10  4  0  0  0  0
 10 11  1  0  0  0  0
 11 12  4  0  0  0  0
 11 15  4  0  0  0  0
 12 13  1  0  0  0  0
 12 68  4  0  0  0  0
 13 14  1  0  0  0  0
 15 16  1  0  0  0  0
 15 67  4  0  0  0  0
 16 17  1  0  0  0  0
 17 18  1  0  0  0  0
 17 19  1  0  0  0  0
 17 20  1  0  0  0  0
 20 21  1  0  0  0  0
 21 22  1  0  0  0  0
 22 23  1  0  0  0  0
 22 66  2  0  0  0  0
 23 24  1  0  0  0  0
 23 65  1  0  0  0  0
 24 25  1  0  0  0  0
 25 26  1  0  0  0  0
 25 63  1  0  0  0  0
 26 27  1  0  0  0  0
 26 62  2  0  0  0  0
 27 28  1  0  0  0  0
 27 55  1  0  0  0  0
 28 29  1  0  0  0  0
 29 30  1  0  0  0  0
 29 54  2  0  0  0  0
 30 31  1  0  0  0  0
 30 34  1  0  0  0  0
 31 32  1  0  0  0  0
 31 33  1  0  0  0  0
 34 35  1  0  0  0  0
 34 53  1  0  0  0  0
 35 36  1  0  0  0  0
 35 52  2  0  0  0  0
 36 37  1  0  0  0  0
 36 51  1  0  0  0  0
 36 73  1  0  0  0  0
 37 38  1  0  0  0  0
 38 39  1  0  0  0  0
 39 40  1  0  0  0  0
 39 50  1  0  0  0  0
 40 41  1  0  0  0  0
 40 49  2  0  0  0  0
 41 42  1  0  0  0  0
 42 43  1  0  0  0  0
 43 44  1  0  0  0  0
 43 47  1  0  0  0  0
 43 48  1  0  0  0  0
 44 45  1  0  0  0  0
 44 46  1  0  0  0  0
 50 51  1  0  0  0  0
 55 56  1  0  0  0  0
 56 57  1  0  0  0  0
 56 61  1  0  0  0  0
 57 58  1  0  0  0  0
 58 59  1  0  0  0  0
 58 71  1  0  0  0  0
 59 60  1  0  0  0  0
 60 61  1  0  0  0  0
 63 64  1  0  0  0  0
 64 65  1  0  0  0  0
 67 68  4  0  0  0  0
 67 72  4  0  0  0  0
 68 69  4  0  0  0  0
 69 70  4  0  0  0  0
 70 71  4  0  0  0  0
 71 72  4  0  0  0  0
M  END
$$$$
