obj13
  PyMOL3.1          3D                             0

 73 79  0  0  0  0  0  0  0  0999 V2000
   16.4596   23.3327   62.4833 C   0  0  0  0  0  0  0  0  0  0  0  0
   15.9349   24.4823   61.6429 C   0  0  0  0  0  0  0  0  0  0  0  0
   16.2285   25.6882   62.2873 O   0  0  0  0  0  0  0  0  0  0  0  0
   17.5704   26.1634   62.1885 C   0  0  0  0  0  0  0  0  0  0  0  0
   14.4649   24.3944   61.4383 C   0  0  0  0  0  0  0  0  0  0  0  0
   13.7716   23.8521   62.4351 N   0  0  0  0  0  0  0  0  0  0  0  0
   12.4675   23.6045   62.3237 C   0  0  0  0  0  0  0  0  0  0  0  0
   11.7719   23.9153   61.1543 C   0  0  0  0  0  0  0  0  0  0  0  0
   12.4537   24.5040   60.1140 C   0  0  0  0  0  0  0  0  0  0  0  0
   13.7949   24.7683   60.2610 C   0  0  0  0  0  0  0  0  0  0  0  0
   14.4907   25.4887   59.2108 C   0  0  0  0  0  0  0  0  0  0  0  0
   14.8649   24.9952   57.9820 N   0  0  0  0  0  0  0  0  0  0  0  0
   14.6351   23.6467   57.4661 C   0  0  0  0  0  0  0  0  0  0  0  0
   15.8333   22.7356   57.7608 C   0  0  0  0  0  0  0  0  0  0  0  0
   14.8927   26.8107   59.2997 C   0  0  0  0  0  0  0  0  0  0  0  0
   14.7083   27.7136   60.4611 C   0  0  0  0  0  0  0  0  0  0  0  0
   13.3461   28.4964   60.4692 C   0  0  0  0  0  0  0  0  0  0  0  0
   12.2374   27.7947   59.7184 C   0  0  0  0  0  0  0  0  0  0  0  0
   12.8843   28.7159   61.9286 C   0  0  0  0  0  0  0  0  0  0  0  0
   13.5296   29.8267   59.7932 C   0  0  0  0  0  0  0  0  0  0  0  0
   14.7292   30.4203   60.1394 O   0  0  0  0  0  0  0  0  0  0  0  0
   14.9516   31.6610   59.7429 C   0  0  0  0  0  0  0  0  0  0  0  0
   16.2495   32.2121   60.1908 C   0  0  0  0  0  0  0  0  0  0  0  0
   16.5004   33.4118   59.4294 N   0  0  0  0  0  0  0  0  0  0  0  0
   17.6373   34.0420   59.7972 N   0  0  0  0  0  0  0  0  0  0  0  0
   18.7081   34.1014   58.9593 C   0  0  0  0  0  0  0  0  0  0  0  0
   18.5900   33.4563   57.5927 C   0  0  0  0  0  0  0  0  0  0  0  0
   19.2887   34.1904   56.5652 N   0  0  0  0  0  0  0  0  0  0  0  0
   18.7727   35.2037   55.8827 C   0  0  0  0  0  0  0  0  0  0  0  0
   19.6733   35.8079   54.8420 C   0  0  0  0  0  0  0  0  0  0  0  0
   19.9108   37.3425   55.0156 C   0  0  0  0  0  0  0  0  0  0  0  0
   20.8455   37.8336   53.9091 C   0  0  0  0  0  0  0  0  0  0  0  0
   20.5359   37.6387   56.3799 C   0  0  0  0  0  0  0  0  0  0  0  0
   19.1222   35.5710   53.5288 N   0  0  0  0  0  0  0  0  0  0  0  0
   19.8049   34.7361   52.7012 C   0  0  0  0  0  0  0  0  0  0  0  0
   19.3977   34.6740   51.2489 C   0  0  0  0  0  0  0  0  0  0  0  0
   19.7921   35.9861   50.6348 C   0  0  0  0  0  0  0  0  0  0  0  0
   19.4106   36.0532   49.1900 C   0  0  0  0  0  0  0  0  0  0  0  0
   20.1818   35.0457   48.5911 N   0  0  0  0  0  0  0  0  0  0  0  0
   21.2513   35.4876   47.8612 C   0  0  0  0  0  0  0  0  0  0  0  0
   22.3889   34.6938   47.7896 C   0  0  0  0  0  0  0  0  0  0  0  0
   23.0939   33.9322   47.4708 C   0  0  0  0  0  0  0  0  0  0  0  0
   24.4402   33.3163   47.6872 C   0  0  0  0  0  0  0  0  0  0  0  0
   25.2674   34.1628   48.5776 N   0  0  0  0  0  0  0  0  0  0  0  0
   24.7456   34.3113   49.9266 C   0  0  0  0  0  0  0  0  0  0  0  0
   25.7269   35.4322   47.9880 C   0  0  0  0  0  0  0  0  0  0  0  0
   24.2988   31.9244   48.3298 C   0  0  0  0  0  0  0  0  0  0  0  0
   25.1347   33.1683   46.3462 C   0  0  0  0  0  0  0  0  0  0  0  0
   21.2725   36.5732   47.3284 O   0  0  0  0  0  0  0  0  0  0  0  0
   19.8572   33.6728   49.0209 C   0  0  0  0  0  0  0  0  0  0  0  0
   20.1034   33.5474   50.4855 C   0  0  0  0  0  0  0  0  0  0  0  0
   20.7517   34.0797   53.1012 O   0  0  0  0  0  0  0  0  0  0  0  0
   17.8742   36.2595   53.1788 C   0  0  0  0  0  0  0  0  0  0  0  0
   17.6257   35.5840   56.0830 O   0  0  0  0  0  0  0  0  0  0  0  0
   19.2124   32.0691   57.7078 C   0  0  0  0  0  0  0  0  0  0  0  0
   18.9171   31.1515   56.5888 C   0  0  0  0  0  0  0  0  0  0  0  0
   17.5219   30.5854   56.7410 C   0  0  0  0  0  0  0  0  0  0  0  0
   17.4306   29.4233   55.8843 N   0  0  0  0  0  0  0  0  0  0  0  0
   17.7594   29.7149   54.4925 C   0  0  0  0  0  0  0  0  0  0  0  0
   19.0217   30.6131   54.3438 C   0  0  0  0  0  0  0  0  0  0  0  0
   19.0207   31.6835   55.3107 O   0  0  0  0  0  0  0  0  0  0  0  0
   19.7555   34.5738   59.2940 O   0  0  0  0  0  0  0  0  0  0  0  0
   17.6635   34.5174   61.1876 C   0  0  0  0  0  0  0  0  0  0  0  0
   17.4703   33.2717   62.0754 C   0  0  0  0  0  0  0  0  0  0  0  0
   16.2240   32.5280   61.6894 C   0  0  0  0  0  0  0  0  0  0  0  0
   14.1679   32.2877   59.0755 O   0  0  0  0  0  0  0  0  0  0  0  0
   15.5575   27.0917   58.0815 C   0  0  0  0  0  0  0  0  0  0  0  0
   15.5164   25.9633   57.2930 C   0  0  0  0  0  0  0  0  0  0  0  0
   16.1218   25.9857   56.0214 C   0  0  0  0  0  0  0  0  0  0  0  0
   16.7412   27.1466   55.5660 C   0  0  0  0  0  0  0  0  0  0  0  0
   16.7813   28.2764   56.3514 C   0  0  0  0  0  0  0  0  0  0  0  0
   16.1872   28.2625   57.6425 C   0  0  0  0  0  0  0  0  0  0  0  0
   18.0532   34.4055   51.1222 F   0  0  0  0  0  0  0  0  0  0  0  0
  1  2  1  0  0  0  0
  2  3  1  0  0  0  0
  2  5  1  0  0  0  0
  3  4  1  0  0  0  0
  5  6  4  0  0  0  0
  5 10  4  0  0  0  0
  6  7  4  0  0  0  0
  7  8  4  0  0  0  0
  8  9  4  0  0  0  0
  9 10  4  0  0  0  0
 10 11  1  0  0  0  0
 11 12  4  0  0  0  0
 11 15  4  0  0  0  0
 12 13  1  0  0  0  0
 12 68  4  0  0  0  0
 13 14  1  0  0  0  0
 15 16  1  0  0  0  0
 15 67  4  0  0  0  0
 16 17  1  0  0  0  0
 17 18  1  0  0  0  0
 17 19  1  0  0  0  0
 17 20  1  0  0  0  0
 20 21  1  0  0  0  0
 21 22  1  0  0  0  0
 22 23  1  0  0  0  0
 22 66  2  0  0  0  0
 23 24  1  0  0  0  0
 23 65  1  0  0  0  0
 24 25  1  0  0  0  0
 25 26  1  0  0  0  0
 25 63  1  0  0  0  0
 26 27  1  0  0  0  0
 26 62  2  0  0  0  0
 27 28  1  0  0  0  0
 27 55  1  0  0  0  0
 28 29  1  0  0  0  0
 29 30  1  0  0  0  0
 29 54  2  0  0  0  0
 30 31  1  0  0  0  0
 30 34  1  0  0  0  0
 31 32  1  0  0  0  0
 31 33  1  0  0  0  0
 34 35  1  0  0  0  0
 34 53  1  0  0  0  0
 35 36  1  0  0  0  0
 35 52  2  0  0  0  0
 36 37  1  0  0  0  0
 36 51  1  0  0  0  0
 36 73  1  0  0  0  0
 37 38  1  0  0  0  0
 38 39  1  0  0  0  0
 39 40  1  0  0  0  0
 39 50  1  0  0  0  0
 40 41  1  0  0  0  0
 40 49  2  0  0  0  0
 41 42  1  0  0  0  0
 42 43  1  0  0  0  0
 43 44  1  0  0  0  0
 43 47  1  0  0  0  0
 43 48  1  0  0  0  0
 44 45  1  0  0  0  0
 44 46  1  0  0  0  0
 50 51  1  0  0  0  0
 55 56  1  0  0  0  0
 56 57  1  0  0  0  0
 56 61  1  0  0  0  0
 57 58  1  0  0  0  0
 58 59  1  0  0  0  0
 58 71  1  0  0  0  0
 59 60  1  0  0  0  0
 60 61  1  0  0  0  0
 63 64  1  0  0  0  0
 64 65  1  0  0  0  0
 67 68  4  0  0  0  0
 67 72  4  0  0  0  0
 68 69  4  0  0  0  0
 69 70  4  0  0  0  0
 70 71  4  0  0  0  0
 71 72  4  0  0  0  0
M  END
$$$$
