obj20
  PyMOL3.1          3D                             0

 73 79  0  0  0  0  0  0  0  0999 V2000
    6.7345   -1.0814   -0.8429 C   0  0  0  0  0  0  0  0  0  0  0  0
    6.2553   -1.9233   -1.9534 C   0  0  0  0  0  0  0  0  0  0  0  0
    6.6813   -1.5257   -3.2500 O   0  0  0  0  0  0  0  0  0  0  0  0
    6.1276   -0.3560   -3.7812 C   0  0  0  0  0  0  0  0  0  0  0  0
    6.6457   -3.3432   -1.7767 C   0  0  0  0  0  0  0  0  0  0  0  0
    7.8825   -3.6799   -2.1439 N   0  0  0  0  0  0  0  0  0  0  0  0
    8.3381   -4.9469   -1.9763 C   0  0  0  0  0  0  0  0  0  0  0  0
    7.5324   -5.9392   -1.4054 C   0  0  0  0  0  0  0  0  0  0  0  0
    6.2399   -5.5974   -1.0080 C   0  0  0  0  0  0  0  0  0  0  0  0
    5.7960   -4.2826   -1.2155 C   0  0  0  0  0  0  0  0  0  0  0  0
    4.4362   -3.9497   -0.8402 C   0  0  0  0  0  0  0  0  0  0  0  0
    4.0648   -3.6272    0.4331 N   0  0  0  0  0  0  0  0  0  0  0  0
    4.9412   -3.5342    1.6530 C   0  0  0  0  0  0  0  0  0  0  0  0
    4.7964   -4.7011    2.5499 C   0  0  0  0  0  0  0  0  0  0  0  0
    3.3228   -3.8363   -1.7223 C   0  0  0  0  0  0  0  0  0  0  0  0
    3.2487   -3.9585   -3.2274 C   0  0  0  0  0  0  0  0  0  0  0  0
    3.0303   -5.4254   -3.8136 C   0  0  0  0  0  0  0  0  0  0  0  0
    3.1823   -5.3263   -5.3305 C   0  0  0  0  0  0  0  0  0  0  0  0
    4.0824   -6.3875   -3.4178 C   0  0  0  0  0  0  0  0  0  0  0  0
    1.6518   -6.0346   -3.4673 C   0  0  0  0  0  0  0  0  0  0  0  0
    0.5590   -5.5184   -4.2642 O   0  0  0  0  0  0  0  0  0  0  0  0
   -0.3670   -6.3827   -4.8236 C   0  0  0  0  0  0  0  0  0  0  0  0
   -1.5456   -5.8114   -5.5908 C   0  0  0  0  0  0  0  0  0  0  0  0
   -1.3313   -4.4307   -5.8601 N   0  0  0  0  0  0  0  0  0  0  0  0
   -2.2830   -3.7386   -6.5923 N   0  0  0  0  0  0  0  0  0  0  0  0
   -2.7629   -2.5313   -6.1539 C   0  0  0  0  0  0  0  0  0  0  0  0
   -2.2631   -1.9890   -4.8438 C   0  0  0  0  0  0  0  0  0  0  0  0
   -1.9958   -0.5474   -4.9251 N   0  0  0  0  0  0  0  0  0  0  0  0
   -0.7638   -0.0503   -5.1332 C   0  0  0  0  0  0  0  0  0  0  0  0
   -0.6333    1.4466   -5.0449 C   0  0  0  0  0  0  0  0  0  0  0  0
   -0.4722    2.1476   -6.4392 C   0  0  0  0  0  0  0  0  0  0  0  0
   -0.6339    3.6360   -6.3480 C   0  0  0  0  0  0  0  0  0  0  0  0
   -1.3153    1.5544   -7.5086 C   0  0  0  0  0  0  0  0  0  0  0  0
    0.5054    1.7255   -4.1581 N   0  0  0  0  0  0  0  0  0  0  0  0
    0.2878    1.7689   -2.7942 C   0  0  0  0  0  0  0  0  0  0  0  0
    1.3657    2.0404   -1.7730 C   0  0  0  0  0  0  0  0  0  0  0  0
    2.1057    0.7445   -1.5243 C   0  0  0  0  0  0  0  0  0  0  0  0
    3.2522    0.9524   -0.5879 C   0  0  0  0  0  0  0  0  0  0  0  0
    2.7557    1.5477    0.6489 N   0  0  0  0  0  0  0  0  0  0  0  0
    3.0482    0.9585    1.8466 C   0  0  0  0  0  0  0  0  0  0  0  0
    2.5737    1.4480    3.0422 C   0  0  0  0  0  0  0  0  0  0  0  0
    2.3191    1.7895    4.1274 C   0  0  0  0  0  0  0  0  0  0  0  0
    1.9556    2.2991    5.3651 C   0  0  0  0  0  0  0  0  0  0  0  0
    3.1275    2.6666    6.1267 N   0  0  0  0  0  0  0  0  0  0  0  0
    4.2433    1.8083    6.1437 C   0  0  0  0  0  0  0  0  0  0  0  0
    3.0976    3.6650    7.1210 C   0  0  0  0  0  0  0  0  0  0  0  0
    1.1594    1.2606    6.1588 C   0  0  0  0  0  0  0  0  0  0  0  0
    1.0516    3.4930    5.1475 C   0  0  0  0  0  0  0  0  0  0  0  0
    3.7405   -0.0608    1.8738 O   0  0  0  0  0  0  0  0  0  0  0  0
    1.9720    2.7550    0.5304 C   0  0  0  0  0  0  0  0  0  0  0  0
    0.8396    2.5876   -0.4320 C   0  0  0  0  0  0  0  0  0  0  0  0
   -0.8752    1.5524   -2.3915 O   0  0  0  0  0  0  0  0  0  0  0  0
    1.8543    1.8301   -4.7486 C   0  0  0  0  0  0  0  0  0  0  0  0
    0.1739   -0.7883   -5.2789 O   0  0  0  0  0  0  0  0  0  0  0  0
   -3.2836   -2.2650   -3.6807 C   0  0  0  0  0  0  0  0  0  0  0  0
   -2.7960   -1.8060   -2.2813 C   0  0  0  0  0  0  0  0  0  0  0  0
   -1.7207   -2.7454   -1.8545 C   0  0  0  0  0  0  0  0  0  0  0  0
   -1.2468   -2.4625   -0.5175 N   0  0  0  0  0  0  0  0  0  0  0  0
   -2.3045   -2.3650    0.5132 C   0  0  0  0  0  0  0  0  0  0  0  0
   -3.4724   -1.5076    0.0058 C   0  0  0  0  0  0  0  0  0  0  0  0
   -3.9062   -1.9047   -1.3469 O   0  0  0  0  0  0  0  0  0  0  0  0
   -3.6047   -1.8863   -6.7952 O   0  0  0  0  0  0  0  0  0  0  0  0
   -2.6711   -4.3173   -7.8762 C   0  0  0  0  0  0  0  0  0  0  0  0
   -2.9212   -5.8329   -7.7282 C   0  0  0  0  0  0  0  0  0  0  0  0
   -1.8207   -6.5446   -6.9295 C   0  0  0  0  0  0  0  0  0  0  0  0
   -0.2129   -7.5789   -4.6811 O   0  0  0  0  0  0  0  0  0  0  0  0
    2.2628   -3.4714   -0.8826 C   0  0  0  0  0  0  0  0  0  0  0  0
    2.7585   -3.3492    0.4204 C   0  0  0  0  0  0  0  0  0  0  0  0
    1.8703   -2.9318    1.4709 C   0  0  0  0  0  0  0  0  0  0  0  0
    0.5554   -2.6433    1.1211 C   0  0  0  0  0  0  0  0  0  0  0  0
    0.0774   -2.7780   -0.1957 C   0  0  0  0  0  0  0  0  0  0  0  0
    0.9441   -3.1967   -1.2195 C   0  0  0  0  0  0  0  0  0  0  0  0
    2.2132    3.0397   -2.2266 F   0  0  0  0  0  0  0  0  0  0  0  0
  1  2  1  0  0  0  0
  2  3  1  0  0  0  0
  2  5  1  0  0  0  0
  3  4  1  0  0  0  0
  5  6  4  0  0  0  0
  5 10  4  0  0  0  0
  6  7  4  0  0  0  0
  7  8  4  0  0  0  0
  8  9  4  0  0  0  0
  9 10  4  0  0  0  0
 10 11  1  0  0  0  0
 11 12  4  0  0  0  0
 11 15  4  0  0  0  0
 12 13  1  0  0  0  0
 12 68  4  0  0  0  0
 13 14  1  0  0  0  0
 15 16  1  0  0  0  0
 15 67  4  0  0  0  0
 16 17  1  0  0  0  0
 17 18  1  0  0  0  0
 17 19  1  0  0  0  0
 17 20  1  0  0  0  0
 20 21  1  0  0  0  0
 21 22  1  0  0  0  0
 22 23  1  0  0  0  0
 22 66  2  0  0  0  0
 23 24  1  0  0  0  0
 23 65  1  0  0  0  0
 24 25  1  0  0  0  0
 25 26  1  0  0  0  0
 25 63  1  0  0  0  0
 26 27  1  0  0  0  0
 26 62  2  0  0  0  0
 27 28  1  0  0  0  0
 27 55  1  0  0  0  0
 28 29  1  0  0  0  0
 29 30  1  0  0  0  0
 29 54  2  0  0  0  0
 30 31  1  0  0  0  0
 30 34  1  0  0  0  0
 31 32  1  0  0  0  0
 31 33  1  0  0  0  0
 34 35  1  0  0  0  0
 34 53  1  0  0  0  0
 35 36  1  0  0  0  0
 35 52  2  0  0  0  0
 36 37  1  0  0  0  0
 36 51  1  0  0  0  0
 36 73  1  0  0  0  0
 37 38  1  0  0  0  0
 38 39  1  0  0  0  0
 39 40  1  0  0  0  0
 39 50  1  0  0  0  0
 40 41  1  0  0  0  0
 40 49  2  0  0  0  0
 41 42  1  0  0  0  0
 42 43  1  0  0  0  0
 43 44  1  0  0  0  0
 43 47  1  0  0  0  0
 43 48  1  0  0  0  0
 44 45  1  0  0  0  0
 44 46  1  0  0  0  0
 50 51  1  0  0  0  0
 55 56  1  0  0  0  0
 56 57  1  0  0  0  0
 56 61  1  0  0  0  0
 57 58  1  0  0  0  0
 58 59  1  0  0  0  0
 58 71  1  0  0  0  0
 59 60  1  0  0  0  0
 60 61  1  0  0  0  0
 63 64  1  0  0  0  0
 64 65  1  0  0  0  0
 67 68  4  0  0  0  0
 67 72  4  0  0  0  0
 68 69  4  0  0  0  0
 69 70  4  0  0  0  0
 70 71  4  0  0  0  0
 71 72  4  0  0  0  0
M  END
$$$$
