 xtb: 6.7.1 (edcfbbe)
          08172522133D

151157  0     0  0            999 V2000
    1.2763    6.4798   -8.3687 C   0  0  0  0  0  0  0  0  0  0  0  0
    1.4985    5.0056   -8.0256 C   0  0  0  0  0  0  0  0  0  0  0  0
    2.6765    4.4767   -8.6161 O   0  0  0  0  0  0  0  0  0  0  0  0
    3.8755    4.9281   -8.0422 C   0  0  0  0  0  0  0  0  0  0  0  0
    0.3533    4.1658   -8.5552 C   0  0  0  0  0  0  0  0  0  0  0  0
   -0.0690    4.4681   -9.7720 N   0  0  0  0  0  0  0  0  0  0  0  0
   -1.0616    3.7839  -10.3058 C   0  0  0  0  0  0  0  0  0  0  0  0
   -1.7127    2.7546   -9.6429 C   0  0  0  0  0  0  0  0  0  0  0  0
   -1.2834    2.4344   -8.3683 C   0  0  0  0  0  0  0  0  0  0  0  0
   -0.2201    3.1353   -7.7985 C   0  0  0  0  0  0  0  0  0  0  0  0
    0.2246    2.8024   -6.4407 C   0  0  0  0  0  0  0  0  0  0  0  0
   -0.5957    3.0506   -5.3608 N   0  0  0  0  0  0  0  0  0  0  0  0
   -1.8190    3.8070   -5.3843 C   0  0  0  0  0  0  0  0  0  0  0  0
   -1.5581    5.3011   -5.1942 C   0  0  0  0  0  0  0  0  0  0  0  0
    1.3933    2.2072   -6.0246 C   0  0  0  0  0  0  0  0  0  0  0  0
    2.5014    1.7390   -6.9115 C   0  0  0  0  0  0  0  0  0  0  0  0
    2.4255    0.2544   -7.3408 C   0  0  0  0  0  0  0  0  0  0  0  0
    3.3954    0.0351   -8.5044 C   0  0  0  0  0  0  0  0  0  0  0  0
    1.0115   -0.1211   -7.7816 C   0  0  0  0  0  0  0  0  0  0  0  0
    2.8215   -0.6622   -6.1784 C   0  0  0  0  0  0  0  0  0  0  0  0
    4.1879   -0.4218   -5.8253 O   0  0  0  0  0  0  0  0  0  0  0  0
    4.6204   -0.9621   -4.6974 C   0  0  0  0  0  0  0  0  0  0  0  0
    6.0570   -0.5661   -4.3871 C   0  0  0  0  0  0  0  0  0  0  0  0
    6.7329   -1.6163   -3.6433 N   0  0  0  0  0  0  0  0  0  0  0  0
    7.8863   -1.0932   -3.0536 N   0  0  0  0  0  0  0  0  0  0  0  0
    7.9395   -0.4426   -1.8679 C   0  0  0  0  0  0  0  0  0  0  0  0
    6.6685   -0.5106   -0.9977 C   0  0  0  0  0  0  0  0  0  0  0  0
    6.8588   -1.4819    0.0557 N   0  0  0  0  0  0  0  0  0  0  0  0
    6.5223   -2.7671   -0.1223 C   0  0  0  0  0  0  0  0  0  0  0  0
    6.6260   -3.5860    1.1672 C   0  0  0  0  0  0  0  0  0  0  0  0
    6.8353   -5.0821    0.9066 C   0  0  0  0  0  0  0  0  0  0  0  0
    6.7124   -5.8789    2.2020 C   0  0  0  0  0  0  0  0  0  0  0  0
    8.2179   -5.2743    0.2856 C   0  0  0  0  0  0  0  0  0  0  0  0
    5.4238   -3.2752    1.9437 N   0  0  0  0  0  0  0  0  0  0  0  0
    5.5603   -2.3533    2.9131 C   0  0  0  0  0  0  0  0  0  0  0  0
    4.3931   -2.0420    3.8625 C   0  0  0  0  0  0  0  0  0  0  0  0
    4.4796   -3.0054    5.0532 C   0  0  0  0  0  0  0  0  0  0  0  0
    3.4210   -2.6475    6.0975 C   0  0  0  0  0  0  0  0  0  0  0  0
    3.5385   -1.2637    6.4883 N   0  0  0  0  0  0  0  0  0  0  0  0
    3.8078   -0.9409    7.7784 C   0  0  0  0  0  0  0  0  0  0  0  0
    3.8833    0.4750    8.0480 C   0  0  0  0  0  0  0  0  0  0  0  0
    3.9116    1.6066    8.4602 C   0  0  0  0  0  0  0  0  0  0  0  0
    4.0479    3.0205    8.8080 C   0  0  0  0  0  0  0  0  0  0  0  0
    5.2773    3.5912    8.2310 N   0  0  0  0  0  0  0  0  0  0  0  0
    5.3269    3.5350    6.7826 C   0  0  0  0  0  0  0  0  0  0  0  0
    6.4969    3.0371    8.7918 C   0  0  0  0  0  0  0  0  0  0  0  0
    4.0697    3.1518   10.3385 C   0  0  0  0  0  0  0  0  0  0  0  0
    2.8220    3.7841    8.2780 C   0  0  0  0  0  0  0  0  0  0  0  0
    3.9535   -1.7715    8.6568 O   0  0  0  0  0  0  0  0  0  0  0  0
    3.4169   -0.3228    5.4043 C   0  0  0  0  0  0  0  0  0  0  0  0
    4.4876   -0.5927    4.3453 C   0  0  0  0  0  0  0  0  0  0  0  0
    6.6359   -1.8204    3.1565 O   0  0  0  0  0  0  0  0  0  0  0  0
    4.1606   -3.7283    1.3989 C   0  0  0  0  0  0  0  0  0  0  0  0
    6.1123   -3.2152   -1.1782 O   0  0  0  0  0  0  0  0  0  0  0  0
    6.3426    0.8730   -0.4323 C   0  0  0  0  0  0  0  0  0  0  0  0
    4.8435    1.0860   -0.2052 C   0  0  0  0  0  0  0  0  0  0  0  0
    4.0524    1.1218   -1.5233 C   0  0  0  0  0  0  0  0  0  0  0  0
    2.6532    1.3395   -1.2248 N   0  0  0  0  0  0  0  0  0  0  0  0
    2.1675    0.2622   -0.3788 C   0  0  0  0  0  0  0  0  0  0  0  0
    2.9839    0.2545    0.9111 C   0  0  0  0  0  0  0  0  0  0  0  0
    4.3571    0.0692    0.6502 O   0  0  0  0  0  0  0  0  0  0  0  0
    8.9482    0.1166   -1.4790 O   0  0  0  0  0  0  0  0  0  0  0  0
    8.8835   -0.8493   -4.0798 C   0  0  0  0  0  0  0  0  0  0  0  0
    8.3282    0.1669   -5.0863 C   0  0  0  0  0  0  0  0  0  0  0  0
    6.9485   -0.2648   -5.5953 C   0  0  0  0  0  0  0  0  0  0  0  0
    3.9480   -1.6253   -3.9498 O   0  0  0  0  0  0  0  0  0  0  0  0
    1.3150    2.1211   -4.6010 C   0  0  0  0  0  0  0  0  0  0  0  0
    0.0638    2.6630   -4.2260 C   0  0  0  0  0  0  0  0  0  0  0  0
   -0.3180    2.7338   -2.8912 C   0  0  0  0  0  0  0  0  0  0  0  0
    0.5576    2.2636   -1.9431 C   0  0  0  0  0  0  0  0  0  0  0  0
    1.8134    1.7266   -2.2869 C   0  0  0  0  0  0  0  0  0  0  0  0
    2.1924    1.6612   -3.6162 C   0  0  0  0  0  0  0  0  0  0  0  0
    3.1435   -2.1981    3.2699 F   0  0  0  0  0  0  0  0  0  0  0  0
    2.0580    7.0996   -7.9370 H   0  0  0  0  0  0  0  0  0  0  0  0
    1.2722    6.5937   -9.4483 H   0  0  0  0  0  0  0  0  0  0  0  0
    0.3166    6.8070   -7.9768 H   0  0  0  0  0  0  0  0  0  0  0  0
    1.5636    4.8816   -6.9304 H   0  0  0  0  0  0  0  0  0  0  0  0
    3.8698    4.7875   -6.9538 H   0  0  0  0  0  0  0  0  0  0  0  0
    4.6670    4.3227   -8.4810 H   0  0  0  0  0  0  0  0  0  0  0  0
    4.0686    5.9827   -8.2644 H   0  0  0  0  0  0  0  0  0  0  0  0
   -1.3502    4.0830  -11.3048 H   0  0  0  0  0  0  0  0  0  0  0  0
   -2.5279    2.2219  -10.1073 H   0  0  0  0  0  0  0  0  0  0  0  0
   -1.7550    1.6356   -7.8122 H   0  0  0  0  0  0  0  0  0  0  0  0
   -2.3215    3.6408   -6.3406 H   0  0  0  0  0  0  0  0  0  0  0  0
   -2.4668    3.4355   -4.5855 H   0  0  0  0  0  0  0  0  0  0  0  0
   -1.0381    5.4756   -4.2552 H   0  0  0  0  0  0  0  0  0  0  0  0
   -0.9420    5.6786   -6.0074 H   0  0  0  0  0  0  0  0  0  0  0  0
   -2.4970    5.8478   -5.1839 H   0  0  0  0  0  0  0  0  0  0  0  0
    2.4952    2.3453   -7.8183 H   0  0  0  0  0  0  0  0  0  0  0  0
    3.4577    1.8924   -6.4066 H   0  0  0  0  0  0  0  0  0  0  0  0
    4.4069    0.3011   -8.2102 H   0  0  0  0  0  0  0  0  0  0  0  0
    3.3901   -1.0079   -8.8137 H   0  0  0  0  0  0  0  0  0  0  0  0
    3.1066    0.6496   -9.3535 H   0  0  0  0  0  0  0  0  0  0  0  0
    0.3116   -0.0218   -6.9555 H   0  0  0  0  0  0  0  0  0  0  0  0
    0.6916    0.5294   -8.5911 H   0  0  0  0  0  0  0  0  0  0  0  0
    0.9843   -1.1500   -8.1337 H   0  0  0  0  0  0  0  0  0  0  0  0
    2.1886   -0.4852   -5.3030 H   0  0  0  0  0  0  0  0  0  0  0  0
    2.7212   -1.7148   -6.4649 H   0  0  0  0  0  0  0  0  0  0  0  0
    5.9696    0.3629   -3.7832 H   0  0  0  0  0  0  0  0  0  0  0  0
    6.1587   -2.1511   -2.9932 H   0  0  0  0  0  0  0  0  0  0  0  0
    5.8260   -0.8770   -1.5883 H   0  0  0  0  0  0  0  0  0  0  0  0
    7.1717   -1.1588    0.9599 H   0  0  0  0  0  0  0  0  0  0  0  0
    7.4687   -3.2161    1.7603 H   0  0  0  0  0  0  0  0  0  0  0  0
    6.0950   -5.4358    0.1833 H   0  0  0  0  0  0  0  0  0  0  0  0
    5.7131   -5.7985    2.6215 H   0  0  0  0  0  0  0  0  0  0  0  0
    6.9209   -6.9295    2.0153 H   0  0  0  0  0  0  0  0  0  0  0  0
    7.4248   -5.5120    2.9381 H   0  0  0  0  0  0  0  0  0  0  0  0
    8.3871   -6.3259    0.0681 H   0  0  0  0  0  0  0  0  0  0  0  0
    8.2968   -4.7152   -0.6431 H   0  0  0  0  0  0  0  0  0  0  0  0
    8.9956   -4.9330    0.9658 H   0  0  0  0  0  0  0  0  0  0  0  0
    4.3275   -4.0307    4.7119 H   0  0  0  0  0  0  0  0  0  0  0  0
    5.4784   -2.9237    5.4831 H   0  0  0  0  0  0  0  0  0  0  0  0
    2.4220   -2.8175    5.6773 H   0  0  0  0  0  0  0  0  0  0  0  0
    3.5444   -3.2582    6.9942 H   0  0  0  0  0  0  0  0  0  0  0  0
    5.3426    2.5065    6.3904 H   0  0  0  0  0  0  0  0  0  0  0  0
    4.4800    4.0642    6.3541 H   0  0  0  0  0  0  0  0  0  0  0  0
    6.2347    4.0394    6.4539 H   0  0  0  0  0  0  0  0  0  0  0  0
    6.5697    3.2833    9.8478 H   0  0  0  0  0  0  0  0  0  0  0  0
    6.5685    1.9467    8.6705 H   0  0  0  0  0  0  0  0  0  0  0  0
    7.3445    3.4958    8.2847 H   0  0  0  0  0  0  0  0  0  0  0  0
    3.0852    2.9207   10.7377 H   0  0  0  0  0  0  0  0  0  0  0  0
    4.7783    2.4616   10.7871 H   0  0  0  0  0  0  0  0  0  0  0  0
    4.3322    4.1709   10.6107 H   0  0  0  0  0  0  0  0  0  0  0  0
    1.9449    3.5197    8.8632 H   0  0  0  0  0  0  0  0  0  0  0  0
    3.0004    4.8523    8.3685 H   0  0  0  0  0  0  0  0  0  0  0  0
    2.6123    3.5414    7.2397 H   0  0  0  0  0  0  0  0  0  0  0  0
    2.4238   -0.4304    4.9487 H   0  0  0  0  0  0  0  0  0  0  0  0
    3.5154    0.6918    5.7944 H   0  0  0  0  0  0  0  0  0  0  0  0
    5.4854   -0.4372    4.7547 H   0  0  0  0  0  0  0  0  0  0  0  0
    4.3544    0.0742    3.4928 H   0  0  0  0  0  0  0  0  0  0  0  0
    3.5828   -4.2803    2.1406 H   0  0  0  0  0  0  0  0  0  0  0  0
    3.5676   -2.8865    1.0400 H   0  0  0  0  0  0  0  0  0  0  0  0
    4.3607   -4.3779    0.5527 H   0  0  0  0  0  0  0  0  0  0  0  0
    6.8727    1.0003    0.5126 H   0  0  0  0  0  0  0  0  0  0  0  0
    6.7024    1.6429   -1.1170 H   0  0  0  0  0  0  0  0  0  0  0  0
    4.6961    2.0624    0.2908 H   0  0  0  0  0  0  0  0  0  0  0  0
    4.4196    1.9527   -2.1299 H   0  0  0  0  0  0  0  0  0  0  0  0
    4.1917    0.1743   -2.0669 H   0  0  0  0  0  0  0  0  0  0  0  0
    1.1134    0.4122   -0.1495 H   0  0  0  0  0  0  0  0  0  0  0  0
    2.2856   -0.7112   -0.8849 H   0  0  0  0  0  0  0  0  0  0  0  0
    2.8339    1.2110    1.4370 H   0  0  0  0  0  0  0  0  0  0  0  0
    2.6758   -0.5685    1.5561 H   0  0  0  0  0  0  0  0  0  0  0  0
    9.7848   -0.4723   -3.5970 H   0  0  0  0  0  0  0  0  0  0  0  0
    9.0903   -1.8010   -4.5732 H   0  0  0  0  0  0  0  0  0  0  0  0
    8.2445    1.1380   -4.5919 H   0  0  0  0  0  0  0  0  0  0  0  0
    9.0212    0.2699   -5.9212 H   0  0  0  0  0  0  0  0  0  0  0  0
    7.0399   -1.1736   -6.1907 H   0  0  0  0  0  0  0  0  0  0  0  0
    6.5081    0.5177   -6.2128 H   0  0  0  0  0  0  0  0  0  0  0  0
   -1.2673    3.1556   -2.5965 H   0  0  0  0  0  0  0  0  0  0  0  0
    0.2937    2.3292   -0.8987 H   0  0  0  0  0  0  0  0  0  0  0  0
    3.1531    1.2659   -3.9041 H   0  0  0  0  0  0  0  0  0  0  0  0
  1  2  1  0  0  0  0
  2  3  1  0  0  0  0
  3  4  1  0  0  0  0
  2  5  1  0  0  0  0
  5  6  4  0  0  0  0
  6  7  4  0  0  0  0
  7  8  4  0  0  0  0
  8  9  4  0  0  0  0
  5 10  4  0  0  0  0
  9 10  4  0  0  0  0
 10 11  1  0  0  0  0
 11 12  1  0  0  0  0
 12 13  1  0  0  0  0
 13 14  1  0  0  0  0
 11 15  2  0  0  0  0
 15 16  1  0  0  0  0
 16 17  1  0  0  0  0
 17 18  1  0  0  0  0
 17 19  1  0  0  0  0
 17 20  1  0  0  0  0
 20 21  1  0  0  0  0
 21 22  1  0  0  0  0
 22 23  1  0  0  0  0
 23 24  1  0  0  0  0
 24 25  1  0  0  0  0
 25 26  4  0  0  0  0
 26 27  1  0  0  0  0
 27 28  1  0  0  0  0
 28 29  4  0  0  0  0
 29 30  1  0  0  0  0
 30 31  1  0  0  0  0
 31 32  1  0  0  0  0
 31 33  1  0  0  0  0
 30 34  1  0  0  0  0
 34 35  4  0  0  0  0
 35 36  1  0  0  0  0
 36 37  1  0  0  0  0
 37 38  1  0  0  0  0
 38 39  1  0  0  0  0
 39 40  4  0  0  0  0
 40 41  1  0  0  0  0
 41 42  3  0  0  0  0
 42 43  1  0  0  0  0
 43 44  1  0  0  0  0
 44 45  1  0  0  0  0
 44 46  1  0  0  0  0
 43 47  1  0  0  0  0
 43 48  1  0  0  0  0
 40 49  2  0  0  0  0
 39 50  1  0  0  0  0
 36 51  1  0  0  0  0
 50 51  1  0  0  0  0
 35 52  2  0  0  0  0
 34 53  1  0  0  0  0
 29 54  2  0  0  0  0
 27 55  1  0  0  0  0
 55 56  1  0  0  0  0
 56 57  1  0  0  0  0
 57 58  1  0  0  0  0
 58 59  1  0  0  0  0
 59 60  1  0  0  0  0
 56 61  1  0  0  0  0
 60 61  1  0  0  0  0
 26 62  2  0  0  0  0
 25 63  1  0  0  0  0
 63 64  1  0  0  0  0
 23 65  1  0  0  0  0
 64 65  1  0  0  0  0
 22 66  2  0  0  0  0
 15 67  4  0  0  0  0
 12 68  1  0  0  0  0
 67 68  4  0  0  0  0
 68 69  4  0  0  0  0
 69 70  2  0  0  0  0
 58 71  1  0  0  0  0
 70 71  4  0  0  0  0
 67 72  4  0  0  0  0
 71 72  4  0  0  0  0
 36 73  1  0  0  0  0
  1 74  1  0  0  0  0
  1 75  1  0  0  0  0
  1 76  1  0  0  0  0
  2 77  1  0  0  0  0
  4 78  1  0  0  0  0
  4 79  1  0  0  0  0
  4 80  1  0  0  0  0
  7 81  1  0  0  0  0
  8 82  1  0  0  0  0
  9 83  1  0  0  0  0
 13 84  1  0  0  0  0
 13 85  1  0  0  0  0
 14 86  1  0  0  0  0
 14 87  1  0  0  0  0
 14 88  1  0  0  0  0
 16 89  1  0  0  0  0
 16 90  1  0  0  0  0
 18 91  1  0  0  0  0
 18 92  1  0  0  0  0
 18 93  1  0  0  0  0
 19 94  1  0  0  0  0
 19 95  1  0  0  0  0
 19 96  1  0  0  0  0
 20 97  1  0  0  0  0
 20 98  1  0  0  0  0
 23 99  1  0  0  0  0
 24100  1  0  0  0  0
 27101  1  0  0  0  0
 28102  1  0  0  0  0
 30103  1  0  0  0  0
 31104  1  0  0  0  0
 32105  1  0  0  0  0
 32106  1  0  0  0  0
 32107  1  0  0  0  0
 33108  1  0  0  0  0
 33109  1  0  0  0  0
 33110  1  0  0  0  0
 37111  1  0  0  0  0
 37112  1  0  0  0  0
 38113  1  0  0  0  0
 38114  1  0  0  0  0
 45115  1  0  0  0  0
 45116  1  0  0  0  0
 45117  1  0  0  0  0
 46118  1  0  0  0  0
 46119  1  0  0  0  0
 46120  1  0  0  0  0
 47121  1  0  0  0  0
 47122  1  0  0  0  0
 47123  1  0  0  0  0
 48124  1  0  0  0  0
 48125  1  0  0  0  0
 48126  1  0  0  0  0
 50127  1  0  0  0  0
 50128  1  0  0  0  0
 51129  1  0  0  0  0
 51130  1  0  0  0  0
 53131  1  0  0  0  0
 53132  1  0  0  0  0
 53133  1  0  0  0  0
 55134  1  0  0  0  0
 55135  1  0  0  0  0
 56136  1  0  0  0  0
 57137  1  0  0  0  0
 57138  1  0  0  0  0
 59139  1  0  0  0  0
 59140  1  0  0  0  0
 60141  1  0  0  0  0
 60142  1  0  0  0  0
 63143  1  0  0  0  0
 63144  1  0  0  0  0
 64145  1  0  0  0  0
 64146  1  0  0  0  0
 65147  1  0  0  0  0
 65148  1  0  0  0  0
 69149  1  0  0  0  0
 70150  1  0  0  0  0
 72151  1  0  0  0  0
M  END
$$$$
