mol_bioactive_23
     RDKit          3D

151157  0  0  0  0  0  0  0  0999 V2000
   -0.2988   15.4278  -12.6485 C   0  0  0  0  0  0  0  0  0  0  0  0
   -0.1920   14.9427  -11.2003 C   0  0  2  0  0  0  0  0  0  0  0  0
   -0.1045   16.0634  -10.3044 O   0  0  0  0  0  0  0  0  0  0  0  0
   -1.3560   16.6877  -10.0543 C   0  0  0  0  0  0  0  0  0  0  0  0
    1.0499   14.0775  -11.0125 C   0  0  0  0  0  0  0  0  0  0  0  0
    2.2153   14.5783  -11.5240 N   0  0  0  0  0  0  0  0  0  0  0  0
    3.3379   13.8421  -11.4067 C   0  0  0  0  0  0  0  0  0  0  0  0
    3.3804   12.6036  -10.7973 C   0  0  0  0  0  0  0  0  0  0  0  0
    2.1976   12.0956  -10.2760 C   0  0  0  0  0  0  0  0  0  0  0  0
    1.0043   12.8269  -10.3695 C   0  0  0  0  0  0  0  0  0  0  0  0
   -0.2408   12.2129   -9.8844 C   0  0  0  0  0  0  0  0  0  0  0  0
   -0.8744   11.1938  -10.5828 N   0  0  0  0  0  0  0  0  0  0  0  0
   -0.3906   10.5561  -11.8035 C   0  0  0  0  0  0  0  0  0  0  0  0
    0.2247    9.1921  -11.5397 C   0  0  0  0  0  0  0  0  0  0  0  0
   -1.0406   12.5247   -8.7827 C   0  0  0  0  0  0  0  0  0  0  0  0
   -0.8061   13.5594   -7.7040 C   0  0  0  0  0  0  0  0  0  0  0  0
    0.2460   13.2641   -6.5949 C   0  0  0  0  0  0  0  0  0  0  0  0
   -0.0226   14.2431   -5.4246 C   0  0  0  0  0  0  0  0  0  0  0  0
    1.6750   13.5518   -7.0905 C   0  0  0  0  0  0  0  0  0  0  0  0
    0.2033   11.8102   -6.0760 C   0  0  0  0  0  0  0  0  0  0  0  0
   -0.9600   11.5669   -5.2723 O   0  0  0  0  0  0  0  0  0  0  0  0
   -1.0092   10.2947   -4.7718 C   0  0  0  0  0  0  0  0  0  0  0  0
   -2.1356   10.1751   -3.7427 C   0  0  1  0  0  0  0  0  0  0  0  0
   -2.6599    8.7999   -3.7483 N   0  0  0  0  0  0  0  0  0  0  0  0
   -3.6647    8.6151   -2.7749 N   0  0  0  0  0  0  0  0  0  0  0  0
   -4.9698    8.1964   -3.0519 C   0  0  0  0  0  0  0  0  0  0  0  0
   -5.5079    8.4806   -4.4704 C   0  0  1  0  0  0  0  0  0  0  0  0
   -6.5362    7.5084   -4.8212 N   0  0  0  0  0  0  0  0  0  0  0  0
   -6.1916    6.2888   -5.3705 C   0  0  0  0  0  0  0  0  0  0  0  0
   -7.3781    5.3109   -5.5358 C   0  0  2  0  0  0  0  0  0  0  0  0
   -6.9348    3.8288   -5.4144 C   0  0  0  0  0  0  0  0  0  0  0  0
   -8.0732    2.8670   -5.7806 C   0  0  0  0  0  0  0  0  0  0  0  0
   -6.4705    3.5240   -3.9832 C   0  0  0  0  0  0  0  0  0  0  0  0
   -8.0561    5.6344   -6.8183 N   0  0  0  0  0  0  0  0  0  0  0  0
   -9.0952    6.5744   -6.7587 C   0  0  0  0  0  0  0  0  0  0  0  0
   -9.9034    6.8610   -8.0466 C   0  0  0  0  0  0  0  0  0  0  0  0
  -10.7340    5.6227   -8.4003 C   0  0  0  0  0  0  0  0  0  0  0  0
  -11.6303    5.8873   -9.5997 C   0  0  0  0  0  0  0  0  0  0  0  0
  -12.4464    7.0767   -9.4011 N   0  0  0  0  0  0  0  0  0  0  0  0
  -13.7362    7.0792   -9.9300 C   0  0  0  0  0  0  0  0  0  0  0  0
  -14.5267    8.2879   -9.8266 C   0  0  0  0  0  0  0  0  0  0  0  0
  -15.2169    9.2676   -9.7219 C   0  0  0  0  0  0  0  0  0  0  0  0
  -16.0932   10.4534   -9.5759 C   0  0  0  0  0  0  0  0  0  0  0  0
  -17.4059   10.1132   -8.9596 N   0  0  0  0  0  0  0  0  0  0  0  0
  -17.3141    9.5790   -7.5962 C   0  0  0  0  0  0  0  0  0  0  0  0
  -18.2347    9.2135   -9.7720 C   0  0  0  0  0  0  0  0  0  0  0  0
  -15.3518   11.5052   -8.7165 C   0  0  0  0  0  0  0  0  0  0  0  0
  -16.2914   11.0911  -10.9705 C   0  0  0  0  0  0  0  0  0  0  0  0
  -14.2582    6.1048  -10.4597 O   0  0  0  0  0  0  0  0  0  0  0  0
  -11.7224    8.2941   -9.0490 C   0  0  0  0  0  0  0  0  0  0  0  0
  -10.8194    8.0747   -7.8433 C   0  0  0  0  0  0  0  0  0  0  0  0
   -9.4122    7.1011   -5.6855 O   0  0  0  0  0  0  0  0  0  0  0  0
   -7.2848    5.4544   -8.0495 C   0  0  0  0  0  0  0  0  0  0  0  0
   -5.0625    6.0556   -5.8000 O   0  0  0  0  0  0  0  0  0  0  0  0
   -6.0917    9.9000   -4.4772 C   0  0  0  0  0  0  0  0  0  0  0  0
   -5.6821   10.7287   -5.6965 C   0  0  1  0  0  0  0  0  0  0  0  0
   -6.0550   10.0656   -7.0442 C   0  0  0  0  0  0  0  0  0  0  0  0
   -5.8719   11.0116   -8.1608 N   0  0  0  0  0  0  0  0  0  0  0  0
   -6.4382   12.3576   -7.9238 C   0  0  0  0  0  0  0  0  0  0  0  0
   -7.1241   12.4522   -6.5556 C   0  0  0  0  0  0  0  0  0  0  0  0
   -6.2483   12.0464   -5.4983 O   0  0  0  0  0  0  0  0  0  0  0  0
   -5.7214    7.7478   -2.1775 O   0  0  0  0  0  0  0  0  0  0  0  0
   -3.1803    8.7510   -1.4006 C   0  0  0  0  0  0  0  0  0  0  0  0
   -2.5844   10.1526   -1.2289 C   0  0  0  0  0  0  0  0  0  0  0  0
   -1.5760   10.4797   -2.3423 C   0  0  0  0  0  0  0  0  0  0  0  0
   -0.2288    9.3992   -5.0698 O   0  0  0  0  0  0  0  0  0  0  0  0
   -2.2650   11.7751   -8.9387 C   0  0  0  0  0  0  0  0  0  0  0  0
   -2.1191   10.9390  -10.0425 C   0  0  0  0  0  0  0  0  0  0  0  0
   -3.1344   10.0628  -10.4548 C   0  0  0  0  0  0  0  0  0  0  0  0
   -4.3571   10.1017   -9.7817 C   0  0  0  0  0  0  0  0  0  0  0  0
   -4.5816   10.9732   -8.7157 C   0  0  0  0  0  0  0  0  0  0  0  0
   -3.5120   11.7702   -8.2625 C   0  0  0  0  0  0  0  0  0  0  0  0
   -9.0852    7.1574   -9.1050 F   0  0  0  0  0  0  0  0  0  0  0  0
   -1.2660   15.9104  -12.8264 H   0  0  0  0  0  0  0  0  0  0  0  0
    0.4675   16.1755  -12.8784 H   0  0  0  0  0  0  0  0  0  0  0  0
   -0.2055   14.5996  -13.3578 H   0  0  0  0  0  0  0  0  0  0  0  0
   -1.0955   14.3672  -10.9759 H   0  0  0  0  0  0  0  0  0  0  0  0
   -2.0596   15.9787   -9.6058 H   0  0  0  0  0  0  0  0  0  0  0  0
   -1.1922   17.5050   -9.3451 H   0  0  0  0  0  0  0  0  0  0  0  0
   -1.7790   17.1106  -10.9705 H   0  0  0  0  0  0  0  0  0  0  0  0
    4.2310   14.2896  -11.8346 H   0  0  0  0  0  0  0  0  0  0  0  0
    4.3077   12.0486  -10.7324 H   0  0  0  0  0  0  0  0  0  0  0  0
    2.2066   11.1235   -9.7877 H   0  0  0  0  0  0  0  0  0  0  0  0
   -1.2380   10.4711  -12.4918 H   0  0  0  0  0  0  0  0  0  0  0  0
    0.3311   11.2153  -12.2932 H   0  0  0  0  0  0  0  0  0  0  0  0
    1.0856    9.2645  -10.8703 H   0  0  0  0  0  0  0  0  0  0  0  0
   -0.4969    8.5115  -11.0769 H   0  0  0  0  0  0  0  0  0  0  0  0
    0.5601    8.7411  -12.4786 H   0  0  0  0  0  0  0  0  0  0  0  0
   -0.5575   14.5103   -8.1867 H   0  0  0  0  0  0  0  0  0  0  0  0
   -1.7704   13.7485   -7.2150 H   0  0  0  0  0  0  0  0  0  0  0  0
    0.6764   14.0731   -4.5970 H   0  0  0  0  0  0  0  0  0  0  0  0
    0.0909   15.2845   -5.7463 H   0  0  0  0  0  0  0  0  0  0  0  0
   -1.0379   14.1314   -5.0259 H   0  0  0  0  0  0  0  0  0  0  0  0
    2.3802   13.6003   -6.2517 H   0  0  0  0  0  0  0  0  0  0  0  0
    2.0369   12.7586   -7.7445 H   0  0  0  0  0  0  0  0  0  0  0  0
    1.7370   14.5073   -7.6231 H   0  0  0  0  0  0  0  0  0  0  0  0
    0.2440   11.0959   -6.9067 H   0  0  0  0  0  0  0  0  0  0  0  0
    1.0854   11.6332   -5.4437 H   0  0  0  0  0  0  0  0  0  0  0  0
   -2.9392   10.8737   -4.0060 H   0  0  0  0  0  0  0  0  0  0  0  0
   -2.8666    8.4396   -4.6789 H   0  0  0  0  0  0  0  0  0  0  0  0
   -4.7058    8.3828   -5.2019 H   0  0  0  0  0  0  0  0  0  0  0  0
   -7.4101    7.5401   -4.2995 H   0  0  0  0  0  0  0  0  0  0  0  0
   -8.0819    5.4950   -4.7145 H   0  0  0  0  0  0  0  0  0  0  0  0
   -6.0885    3.6248   -6.0817 H   0  0  0  0  0  0  0  0  0  0  0  0
   -8.9693    3.0665   -5.1824 H   0  0  0  0  0  0  0  0  0  0  0  0
   -8.3455    2.9559   -6.8385 H   0  0  0  0  0  0  0  0  0  0  0  0
   -7.7764    1.8268   -5.6088 H   0  0  0  0  0  0  0  0  0  0  0  0
   -7.2837    3.6635   -3.2636 H   0  0  0  0  0  0  0  0  0  0  0  0
   -6.1263    2.4872   -3.9005 H   0  0  0  0  0  0  0  0  0  0  0  0
   -5.6413    4.1707   -3.6855 H   0  0  0  0  0  0  0  0  0  0  0  0
  -10.0940    4.7652   -8.6294 H   0  0  0  0  0  0  0  0  0  0  0  0
  -11.3493    5.3367   -7.5371 H   0  0  0  0  0  0  0  0  0  0  0  0
  -11.0331    6.0449  -10.5056 H   0  0  0  0  0  0  0  0  0  0  0  0
  -12.2600    5.0102   -9.7768 H   0  0  0  0  0  0  0  0  0  0  0  0
  -16.8496   10.2937   -6.9105 H   0  0  0  0  0  0  0  0  0  0  0  0
  -18.3159    9.3984   -7.1879 H   0  0  0  0  0  0  0  0  0  0  0  0
  -16.7637    8.6332   -7.5477 H   0  0  0  0  0  0  0  0  0  0  0  0
  -19.2050    9.0470   -9.2875 H   0  0  0  0  0  0  0  0  0  0  0  0
  -18.4728    9.6504  -10.7450 H   0  0  0  0  0  0  0  0  0  0  0  0
  -17.7671    8.2356   -9.9282 H   0  0  0  0  0  0  0  0  0  0  0  0
  -15.0109   11.0978   -7.7573 H   0  0  0  0  0  0  0  0  0  0  0  0
  -14.4502   11.8691   -9.2267 H   0  0  0  0  0  0  0  0  0  0  0  0
  -15.9885   12.3753   -8.5166 H   0  0  0  0  0  0  0  0  0  0  0  0
  -16.9969   11.9303  -10.9280 H   0  0  0  0  0  0  0  0  0  0  0  0
  -15.3444   11.4796  -11.3673 H   0  0  0  0  0  0  0  0  0  0  0  0
  -16.6569   10.3724  -11.7128 H   0  0  0  0  0  0  0  0  0  0  0  0
  -11.1347    8.5875   -9.9268 H   0  0  0  0  0  0  0  0  0  0  0  0
  -12.4081    9.1177   -8.8344 H   0  0  0  0  0  0  0  0  0  0  0  0
  -11.4439    7.9367   -6.9520 H   0  0  0  0  0  0  0  0  0  0  0  0
  -10.2159    8.9755   -7.6807 H   0  0  0  0  0  0  0  0  0  0  0  0
   -6.6022    4.6069   -7.9620 H   0  0  0  0  0  0  0  0  0  0  0  0
   -7.9419    5.2526   -8.8962 H   0  0  0  0  0  0  0  0  0  0  0  0
   -6.7143    6.3684   -8.2486 H   0  0  0  0  0  0  0  0  0  0  0  0
   -7.1884    9.8760   -4.4117 H   0  0  0  0  0  0  0  0  0  0  0  0
   -5.7736   10.4557   -3.5838 H   0  0  0  0  0  0  0  0  0  0  0  0
   -4.5965   10.8706   -5.6658 H   0  0  0  0  0  0  0  0  0  0  0  0
   -5.4822    9.1438   -7.2072 H   0  0  0  0  0  0  0  0  0  0  0  0
   -7.1113    9.7666   -7.0310 H   0  0  0  0  0  0  0  0  0  0  0  0
   -5.6834   13.1472   -7.9922 H   0  0  0  0  0  0  0  0  0  0  0  0
   -7.1755   12.5640   -8.7081 H   0  0  0  0  0  0  0  0  0  0  0  0
   -7.4202   13.4884   -6.3615 H   0  0  0  0  0  0  0  0  0  0  0  0
   -8.0357   11.8453   -6.5144 H   0  0  0  0  0  0  0  0  0  0  0  0
   -3.9923    8.5986   -0.6828 H   0  0  0  0  0  0  0  0  0  0  0  0
   -2.4213    7.9776   -1.2274 H   0  0  0  0  0  0  0  0  0  0  0  0
   -3.3954   10.8919   -1.2630 H   0  0  0  0  0  0  0  0  0  0  0  0
   -2.1043   10.2423   -0.2484 H   0  0  0  0  0  0  0  0  0  0  0  0
   -0.6578    9.9008   -2.1695 H   0  0  0  0  0  0  0  0  0  0  0  0
   -1.2884   11.5359   -2.2769 H   0  0  0  0  0  0  0  0  0  0  0  0
   -3.0076    9.3988  -11.3038 H   0  0  0  0  0  0  0  0  0  0  0  0
   -5.1669    9.4648  -10.1262 H   0  0  0  0  0  0  0  0  0  0  0  0
   -3.6480   12.4263   -7.4096 H   0  0  0  0  0  0  0  0  0  0  0  0
  1  2  1  0
  2  3  1  0
  2  5  1  0
  3  4  1  0
  5  6  2  0
  5 10  1  0
  6  7  1  0
  7  8  2  0
  8  9  1  0
  9 10  2  0
 10 11  1  0
 11 12  1  0
 11 15  2  0
 12 13  1  0
 12 68  1  0
 13 14  1  0
 15 16  1  0
 15 67  1  0
 16 17  1  0
 17 18  1  0
 17 19  1  0
 17 20  1  0
 20 21  1  0
 21 22  1  0
 22 23  1  0
 22 66  2  0
 23 24  1  0
 23 65  1  0
 24 25  1  0
 25 26  1  0
 25 63  1  0
 26 27  1  0
 26 62  2  0
 27 28  1  0
 27 55  1  0
 28 29  1  0
 29 30  1  0
 29 54  2  0
 30 31  1  0
 30 34  1  0
 31 32  1  0
 31 33  1  0
 34 35  1  0
 34 53  1  0
 35 36  1  0
 35 52  2  0
 36 37  1  0
 36 51  1  0
 36 73  1  0
 37 38  1  0
 38 39  1  0
 39 40  1  0
 39 50  1  0
 40 41  1  0
 40 49  2  0
 42 43  1  0
 43 44  1  0
 43 47  1  0
 43 48  1  0
 44 45  1  0
 44 46  1  0
 50 51  1  0
 55 56  1  0
 56 57  1  0
 56 61  1  0
 57 58  1  0
 58 59  1  0
 58 71  1  0
 59 60  1  0
 60 61  1  0
 63 64  1  0
 64 65  1  0
 67 68  2  0
 67 72  1  0
 68 69  1  0
 69 70  2  0
 70 71  1  0
 71 72  2  0
 41 42  3  0
  1 74  1  0
  1 75  1  0
  1 76  1  0
  2 77  1  1
  4 78  1  0
  4 79  1  0
  4 80  1  0
  7 81  1  0
  8 82  1  0
  9 83  1  0
 13 84  1  0
 13 85  1  0
 14 86  1  0
 14 87  1  0
 14 88  1  0
 16 89  1  0
 16 90  1  0
 18 91  1  0
 18 92  1  0
 18 93  1  0
 19 94  1  0
 19 95  1  0
 19 96  1  0
 20 97  1  0
 20 98  1  0
 23 99  1  6
 24100  1  0
 27101  1  6
 28102  1  0
 30103  1  1
 31104  1  0
 32105  1  0
 32106  1  0
 32107  1  0
 33108  1  0
 33109  1  0
 33110  1  0
 37111  1  0
 37112  1  0
 38113  1  0
 38114  1  0
 45115  1  0
 45116  1  0
 45117  1  0
 46118  1  0
 46119  1  0
 46120  1  0
 47121  1  0
 47122  1  0
 47123  1  0
 48124  1  0
 48125  1  0
 48126  1  0
 50127  1  0
 50128  1  0
 51129  1  0
 51130  1  0
 53131  1  0
 53132  1  0
 53133  1  0
 55134  1  0
 55135  1  0
 56136  1  6
 57137  1  0
 57138  1  0
 59139  1  0
 59140  1  0
 60141  1  0
 60142  1  0
 63143  1  0
 63144  1  0
 64145  1  0
 64146  1  0
 65147  1  0
 65148  1  0
 69149  1  0
 70150  1  0
 72151  1  0
M  END
$$$$
