 energy: -221.263763532511 gnorm: 0.000477877722 xtb: 6.7.1 (edcfbbe)
          08182522293D

151157  0     0  0            999 V2000
    0.3029   15.0828  -12.8128 C   0  0  0  0  0  0  0  0  0  0  0  0
   -0.0481   14.6406  -11.3914 C   0  0  0  0  0  0  0  0  0  0  0  0
   -0.3388   15.7304  -10.5280 O   0  0  0  0  0  0  0  0  0  0  0  0
   -1.5472   16.3898  -10.8074 C   0  0  0  0  0  0  0  0  0  0  0  0
    1.1214   13.9035  -10.7702 C   0  0  0  0  0  0  0  0  0  0  0  0
    2.3259   14.3759  -11.0461 N   0  0  0  0  0  0  0  0  0  0  0  0
    3.3895   13.7749  -10.5493 C   0  0  0  0  0  0  0  0  0  0  0  0
    3.3171   12.6440   -9.7501 C   0  0  0  0  0  0  0  0  0  0  0  0
    2.0627   12.1414   -9.4557 C   0  0  0  0  0  0  0  0  0  0  0  0
    0.9282   12.7778   -9.9582 C   0  0  0  0  0  0  0  0  0  0  0  0
   -0.4083   12.2440   -9.6672 C   0  0  0  0  0  0  0  0  0  0  0  0
   -0.8377   11.0999  -10.3070 N   0  0  0  0  0  0  0  0  0  0  0  0
   -0.1008   10.3273  -11.2710 C   0  0  0  0  0  0  0  0  0  0  0  0
    0.4791    9.0509  -10.6623 C   0  0  0  0  0  0  0  0  0  0  0  0
   -1.3887   12.7134   -8.8246 C   0  0  0  0  0  0  0  0  0  0  0  0
   -1.3904   13.9202   -7.9394 C   0  0  0  0  0  0  0  0  0  0  0  0
   -0.4172   13.9353   -6.7295 C   0  0  0  0  0  0  0  0  0  0  0  0
   -1.0456   14.7717   -5.6105 C   0  0  0  0  0  0  0  0  0  0  0  0
    0.9111   14.5885   -7.1271 C   0  0  0  0  0  0  0  0  0  0  0  0
   -0.0974   12.5245   -6.2033 C   0  0  0  0  0  0  0  0  0  0  0  0
   -1.0326   12.0610   -5.2237 O   0  0  0  0  0  0  0  0  0  0  0  0
   -1.5086   10.8326   -5.3410 C   0  0  0  0  0  0  0  0  0  0  0  0
   -2.3259   10.4370   -4.1127 C   0  0  0  0  0  0  0  0  0  0  0  0
   -2.4452    8.9859   -4.1179 N   0  0  0  0  0  0  0  0  0  0  0  0
   -3.2654    8.5072   -3.0910 N   0  0  0  0  0  0  0  0  0  0  0  0
   -4.5015    7.9912   -3.2030 C   0  0  0  0  0  0  0  0  0  0  0  0
   -5.1588    8.0737   -4.5832 C   0  0  0  0  0  0  0  0  0  0  0  0
   -6.1802    7.0627   -4.6804 N   0  0  0  0  0  0  0  0  0  0  0  0
   -6.3089    6.2820   -5.7667 C   0  0  0  0  0  0  0  0  0  0  0  0
   -7.5178    5.3413   -5.7250 C   0  0  0  0  0  0  0  0  0  0  0  0
   -7.1273    3.9124   -5.3124 C   0  0  0  0  0  0  0  0  0  0  0  0
   -8.3296    2.9791   -5.4364 C   0  0  0  0  0  0  0  0  0  0  0  0
   -6.6166    3.9240   -3.8722 C   0  0  0  0  0  0  0  0  0  0  0  0
   -8.1993    5.4313   -7.0149 N   0  0  0  0  0  0  0  0  0  0  0  0
   -9.2164    6.3122   -7.0737 C   0  0  0  0  0  0  0  0  0  0  0  0
  -10.0084    6.4825   -8.3836 C   0  0  0  0  0  0  0  0  0  0  0  0
  -11.0631    5.3706   -8.4574 C   0  0  0  0  0  0  0  0  0  0  0  0
  -11.9767    5.5829   -9.6660 C   0  0  0  0  0  0  0  0  0  0  0  0
  -12.5685    6.8972   -9.6185 N   0  0  0  0  0  0  0  0  0  0  0  0
  -13.9018    7.0350   -9.4162 C   0  0  0  0  0  0  0  0  0  0  0  0
  -14.3749    8.3944   -9.3248 C   0  0  0  0  0  0  0  0  0  0  0  0
  -14.9027    9.4732   -9.2368 C   0  0  0  0  0  0  0  0  0  0  0  0
  -15.6057   10.7491   -9.1114 C   0  0  0  0  0  0  0  0  0  0  0  0
  -17.0134   10.5448   -8.7333 N   0  0  0  0  0  0  0  0  0  0  0  0
  -17.1763    9.9257   -7.4295 C   0  0  0  0  0  0  0  0  0  0  0  0
  -17.7764    9.8094   -9.7271 C   0  0  0  0  0  0  0  0  0  0  0  0
  -14.8954   11.6067   -8.0507 C   0  0  0  0  0  0  0  0  0  0  0  0
  -15.5263   11.4866  -10.4590 C   0  0  0  0  0  0  0  0  0  0  0  0
  -14.6682    6.0904   -9.3417 O   0  0  0  0  0  0  0  0  0  0  0  0
  -11.6136    7.9753   -9.6147 C   0  0  0  0  0  0  0  0  0  0  0  0
  -10.6813    7.8581   -8.4069 C   0  0  0  0  0  0  0  0  0  0  0  0
   -9.6152    6.9161   -6.0870 O   0  0  0  0  0  0  0  0  0  0  0  0
   -7.5581    4.8421   -8.1720 C   0  0  0  0  0  0  0  0  0  0  0  0
   -5.5621    6.3547   -6.7233 O   0  0  0  0  0  0  0  0  0  0  0  0
   -5.7697    9.4847   -4.7256 C   0  0  0  0  0  0  0  0  0  0  0  0
   -5.3448   10.1951   -6.0158 C   0  0  0  0  0  0  0  0  0  0  0  0
   -6.1096    9.7009   -7.2563 C   0  0  0  0  0  0  0  0  0  0  0  0
   -5.9817   10.6792   -8.3190 N   0  0  0  0  0  0  0  0  0  0  0  0
   -6.6667   11.9074   -7.9518 C   0  0  0  0  0  0  0  0  0  0  0  0
   -6.6288   12.1575   -6.4288 C   0  0  0  0  0  0  0  0  0  0  0  0
   -5.4666   11.6058   -5.8507 O   0  0  0  0  0  0  0  0  0  0  0  0
   -5.0997    7.5075   -2.2552 O   0  0  0  0  0  0  0  0  0  0  0  0
   -2.6512    8.7494   -1.8001 C   0  0  0  0  0  0  0  0  0  0  0  0
   -2.4565   10.2580   -1.6259 C   0  0  0  0  0  0  0  0  0  0  0  0
   -1.6455   10.8219   -2.7940 C   0  0  0  0  0  0  0  0  0  0  0  0
   -1.3306   10.0973   -6.2775 O   0  0  0  0  0  0  0  0  0  0  0  0
   -2.4956   11.8207   -8.9687 C   0  0  0  0  0  0  0  0  0  0  0  0
   -2.1113   10.8253   -9.8946 C   0  0  0  0  0  0  0  0  0  0  0  0
   -2.9787    9.8014  -10.2588 C   0  0  0  0  0  0  0  0  0  0  0  0
   -4.2359    9.7973   -9.7032 C   0  0  0  0  0  0  0  0  0  0  0  0
   -4.6459   10.7906   -8.7986 C   0  0  0  0  0  0  0  0  0  0  0  0
   -3.7776   11.7960   -8.4208 C   0  0  0  0  0  0  0  0  0  0  0  0
   -9.1973    6.4088   -9.5111 F   0  0  0  0  0  0  0  0  0  0  0  0
   -0.5525   15.5458  -13.2977 H   0  0  0  0  0  0  0  0  0  0  0  0
    1.1280   15.7873  -12.7719 H   0  0  0  0  0  0  0  0  0  0  0  0
    0.6067   14.2173  -13.3954 H   0  0  0  0  0  0  0  0  0  0  0  0
   -0.9235   13.9680  -11.4176 H   0  0  0  0  0  0  0  0  0  0  0  0
   -2.3830   15.6800  -10.8580 H   0  0  0  0  0  0  0  0  0  0  0  0
   -1.7124   17.0842   -9.9846 H   0  0  0  0  0  0  0  0  0  0  0  0
   -1.5024   16.9554  -11.7437 H   0  0  0  0  0  0  0  0  0  0  0  0
    4.3408   14.2174  -10.8138 H   0  0  0  0  0  0  0  0  0  0  0  0
    4.2106   12.1732   -9.3705 H   0  0  0  0  0  0  0  0  0  0  0  0
    1.9501   11.2703   -8.8253 H   0  0  0  0  0  0  0  0  0  0  0  0
   -0.7781   10.0659  -12.0913 H   0  0  0  0  0  0  0  0  0  0  0  0
    0.7025   10.9498  -11.6761 H   0  0  0  0  0  0  0  0  0  0  0  0
    1.2140    9.2897   -9.8984 H   0  0  0  0  0  0  0  0  0  0  0  0
   -0.3105    8.4621  -10.2030 H   0  0  0  0  0  0  0  0  0  0  0  0
    0.9608    8.4566  -11.4344 H   0  0  0  0  0  0  0  0  0  0  0  0
   -1.1652   14.8022   -8.5411 H   0  0  0  0  0  0  0  0  0  0  0  0
   -2.4074   14.0268   -7.5588 H   0  0  0  0  0  0  0  0  0  0  0  0
   -0.3794   14.8199   -4.7520 H   0  0  0  0  0  0  0  0  0  0  0  0
   -1.2284   15.7833   -5.9651 H   0  0  0  0  0  0  0  0  0  0  0  0
   -1.9877   14.3380   -5.2851 H   0  0  0  0  0  0  0  0  0  0  0  0
    1.5326   14.7527   -6.2486 H   0  0  0  0  0  0  0  0  0  0  0  0
    1.4607   13.9638   -7.8226 H   0  0  0  0  0  0  0  0  0  0  0  0
    0.7331   15.5476   -7.6060 H   0  0  0  0  0  0  0  0  0  0  0  0
   -0.0641   11.8036   -7.0248 H   0  0  0  0  0  0  0  0  0  0  0  0
    0.8749   12.5396   -5.6985 H   0  0  0  0  0  0  0  0  0  0  0  0
   -3.2973   10.9565   -4.1861 H   0  0  0  0  0  0  0  0  0  0  0  0
   -2.6906    8.6239   -5.0320 H   0  0  0  0  0  0  0  0  0  0  0  0
   -4.4557    7.8695   -5.3964 H   0  0  0  0  0  0  0  0  0  0  0  0
   -6.7445    6.9304   -3.8535 H   0  0  0  0  0  0  0  0  0  0  0  0
   -8.2375    5.7232   -4.9932 H   0  0  0  0  0  0  0  0  0  0  0  0
   -6.3160    3.5524   -5.9530 H   0  0  0  0  0  0  0  0  0  0  0  0
   -9.1497    3.3417   -4.8207 H   0  0  0  0  0  0  0  0  0  0  0  0
   -8.6762    2.9142   -6.4641 H   0  0  0  0  0  0  0  0  0  0  0  0
   -8.0631    1.9796   -5.1013 H   0  0  0  0  0  0  0  0  0  0  0  0
   -7.3881    4.2823   -3.1940 H   0  0  0  0  0  0  0  0  0  0  0  0
   -6.3412    2.9164   -3.5702 H   0  0  0  0  0  0  0  0  0  0  0  0
   -5.7411    4.5597   -3.7678 H   0  0  0  0  0  0  0  0  0  0  0  0
  -10.5785    4.3961   -8.5295 H   0  0  0  0  0  0  0  0  0  0  0  0
  -11.6482    5.4013   -7.5371 H   0  0  0  0  0  0  0  0  0  0  0  0
  -11.3937    5.4858  -10.5892 H   0  0  0  0  0  0  0  0  0  0  0  0
  -12.7861    4.8501   -9.6676 H   0  0  0  0  0  0  0  0  0  0  0  0
  -16.7650   10.5669   -6.6541 H   0  0  0  0  0  0  0  0  0  0  0  0
  -18.2422    9.8138   -7.2366 H   0  0  0  0  0  0  0  0  0  0  0  0
  -16.7063    8.9339   -7.3647 H   0  0  0  0  0  0  0  0  0  0  0  0
  -18.7969    9.7030   -9.3623 H   0  0  0  0  0  0  0  0  0  0  0  0
  -17.8146   10.3664  -10.6599 H   0  0  0  0  0  0  0  0  0  0  0  0
  -17.3710    8.8064   -9.9220 H   0  0  0  0  0  0  0  0  0  0  0  0
  -14.7098   11.0435   -7.1403 H   0  0  0  0  0  0  0  0  0  0  0  0
  -13.9359   11.9461   -8.4339 H   0  0  0  0  0  0  0  0  0  0  0  0
  -15.5106   12.4724   -7.8201 H   0  0  0  0  0  0  0  0  0  0  0  0
  -16.1976   12.3410  -10.4392 H   0  0  0  0  0  0  0  0  0  0  0  0
  -14.5109   11.8372  -10.6277 H   0  0  0  0  0  0  0  0  0  0  0  0
  -15.7952   10.8355  -11.2861 H   0  0  0  0  0  0  0  0  0  0  0  0
  -11.0189    7.9217  -10.5350 H   0  0  0  0  0  0  0  0  0  0  0  0
  -12.1446    8.9284   -9.5908 H   0  0  0  0  0  0  0  0  0  0  0  0
  -11.2348    7.9845   -7.4770 H   0  0  0  0  0  0  0  0  0  0  0  0
   -9.9091    8.6272   -8.4602 H   0  0  0  0  0  0  0  0  0  0  0  0
   -6.8218    4.1202   -7.8365 H   0  0  0  0  0  0  0  0  0  0  0  0
   -8.2847    4.3336   -8.8043 H   0  0  0  0  0  0  0  0  0  0  0  0
   -7.0385    5.5989   -8.7607 H   0  0  0  0  0  0  0  0  0  0  0  0
   -6.8582    9.3994   -4.6933 H   0  0  0  0  0  0  0  0  0  0  0  0
   -5.4724   10.1124   -3.8810 H   0  0  0  0  0  0  0  0  0  0  0  0
   -4.2731   10.0336   -6.1945 H   0  0  0  0  0  0  0  0  0  0  0  0
   -5.7026    8.7423   -7.5796 H   0  0  0  0  0  0  0  0  0  0  0  0
   -7.1729    9.5683   -7.0331 H   0  0  0  0  0  0  0  0  0  0  0  0
   -6.2180   12.7368   -8.4989 H   0  0  0  0  0  0  0  0  0  0  0  0
   -7.7130   11.8149   -8.2715 H   0  0  0  0  0  0  0  0  0  0  0  0
   -6.5856   13.2250   -6.2038 H   0  0  0  0  0  0  0  0  0  0  0  0
   -7.5249   11.7389   -5.9497 H   0  0  0  0  0  0  0  0  0  0  0  0
   -3.3093    8.3368   -1.0353 H   0  0  0  0  0  0  0  0  0  0  0  0
   -1.6849    8.2387   -1.7744 H   0  0  0  0  0  0  0  0  0  0  0  0
   -3.4345   10.7433   -1.5901 H   0  0  0  0  0  0  0  0  0  0  0  0
   -1.9446   10.4535   -0.6838 H   0  0  0  0  0  0  0  0  0  0  0  0
   -0.6433   10.3903   -2.7819 H   0  0  0  0  0  0  0  0  0  0  0  0
   -1.5619   11.9054   -2.7209 H   0  0  0  0  0  0  0  0  0  0  0  0
   -2.6862    9.0348  -10.9602 H   0  0  0  0  0  0  0  0  0  0  0  0
   -4.9419    9.0238   -9.9630 H   0  0  0  0  0  0  0  0  0  0  0  0
   -4.0750   12.5424   -7.7000 H   0  0  0  0  0  0  0  0  0  0  0  0
  1  2  1  0  0  0  0
  2  3  1  0  0  0  0
  2  5  1  0  0  0  0
  3  4  1  0  0  0  0
  5  6  2  0  0  0  0
  5 10  1  0  0  0  0
  6  7  1  0  0  0  0
  7  8  2  0  0  0  0
  8  9  1  0  0  0  0
  9 10  2  0  0  0  0
 10 11  1  0  0  0  0
 11 12  1  0  0  0  0
 11 15  2  0  0  0  0
 12 13  1  0  0  0  0
 12 68  1  0  0  0  0
 13 14  1  0  0  0  0
 15 16  1  0  0  0  0
 15 67  1  0  0  0  0
 16 17  1  0  0  0  0
 17 18  1  0  0  0  0
 17 19  1  0  0  0  0
 17 20  1  0  0  0  0
 20 21  1  0  0  0  0
 21 22  1  0  0  0  0
 22 23  1  0  0  0  0
 22 66  2  0  0  0  0
 23 24  1  0  0  0  0
 23 65  1  0  0  0  0
 24 25  1  0  0  0  0
 25 26  1  0  0  0  0
 25 63  1  0  0  0  0
 26 27  1  0  0  0  0
 26 62  2  0  0  0  0
 27 28  1  0  0  0  0
 27 55  1  0  0  0  0
 28 29  1  0  0  0  0
 29 30  1  0  0  0  0
 29 54  2  0  0  0  0
 30 31  1  0  0  0  0
 30 34  1  0  0  0  0
 31 32  1  0  0  0  0
 31 33  1  0  0  0  0
 34 35  1  0  0  0  0
 34 53  1  0  0  0  0
 35 36  1  0  0  0  0
 35 52  2  0  0  0  0
 36 37  1  0  0  0  0
 36 51  1  0  0  0  0
 36 73  1  0  0  0  0
 37 38  1  0  0  0  0
 38 39  1  0  0  0  0
 39 40  1  0  0  0  0
 39 50  1  0  0  0  0
 40 41  1  0  0  0  0
 40 49  2  0  0  0  0
 42 43  1  0  0  0  0
 43 44  1  0  0  0  0
 43 47  1  0  0  0  0
 43 48  1  0  0  0  0
 44 45  1  0  0  0  0
 44 46  1  0  0  0  0
 50 51  1  0  0  0  0
 55 56  1  0  0  0  0
 56 57  1  0  0  0  0
 56 61  1  0  0  0  0
 57 58  1  0  0  0  0
 58 59  1  0  0  0  0
 58 71  1  0  0  0  0
 59 60  1  0  0  0  0
 60 61  1  0  0  0  0
 63 64  1  0  0  0  0
 64 65  1  0  0  0  0
 67 68  2  0  0  0  0
 67 72  1  0  0  0  0
 68 69  1  0  0  0  0
 69 70  2  0  0  0  0
 70 71  1  0  0  0  0
 71 72  2  0  0  0  0
 41 42  3  0  0  0  0
  1 74  1  0  0  0  0
  1 75  1  0  0  0  0
  1 76  1  0  0  0  0
  2 77  1  0  0  0  0
  4 78  1  0  0  0  0
  4 79  1  0  0  0  0
  4 80  1  0  0  0  0
  7 81  1  0  0  0  0
  8 82  1  0  0  0  0
  9 83  1  0  0  0  0
 13 84  1  0  0  0  0
 13 85  1  0  0  0  0
 14 86  1  0  0  0  0
 14 87  1  0  0  0  0
 14 88  1  0  0  0  0
 16 89  1  0  0  0  0
 16 90  1  0  0  0  0
 18 91  1  0  0  0  0
 18 92  1  0  0  0  0
 18 93  1  0  0  0  0
 19 94  1  0  0  0  0
 19 95  1  0  0  0  0
 19 96  1  0  0  0  0
 20 97  1  0  0  0  0
 20 98  1  0  0  0  0
 23 99  1  0  0  0  0
 24100  1  0  0  0  0
 27101  1  0  0  0  0
 28102  1  0  0  0  0
 30103  1  0  0  0  0
 31104  1  0  0  0  0
 32105  1  0  0  0  0
 32106  1  0  0  0  0
 32107  1  0  0  0  0
 33108  1  0  0  0  0
 33109  1  0  0  0  0
 33110  1  0  0  0  0
 37111  1  0  0  0  0
 37112  1  0  0  0  0
 38113  1  0  0  0  0
 38114  1  0  0  0  0
 45115  1  0  0  0  0
 45116  1  0  0  0  0
 45117  1  0  0  0  0
 46118  1  0  0  0  0
 46119  1  0  0  0  0
 46120  1  0  0  0  0
 47121  1  0  0  0  0
 47122  1  0  0  0  0
 47123  1  0  0  0  0
 48124  1  0  0  0  0
 48125  1  0  0  0  0
 48126  1  0  0  0  0
 50127  1  0  0  0  0
 50128  1  0  0  0  0
 51129  1  0  0  0  0
 51130  1  0  0  0  0
 53131  1  0  0  0  0
 53132  1  0  0  0  0
 53133  1  0  0  0  0
 55134  1  0  0  0  0
 55135  1  0  0  0  0
 56136  1  0  0  0  0
 57137  1  0  0  0  0
 57138  1  0  0  0  0
 59139  1  0  0  0  0
 59140  1  0  0  0  0
 60141  1  0  0  0  0
 60142  1  0  0  0  0
 63143  1  0  0  0  0
 63144  1  0  0  0  0
 64145  1  0  0  0  0
 64146  1  0  0  0  0
 65147  1  0  0  0  0
 65148  1  0  0  0  0
 69149  1  0  0  0  0
 70150  1  0  0  0  0
 72151  1  0  0  0  0
M  END
$$$$
