 xtb: 6.7.1 (edcfbbe)
          08172522043D

151157  0     0  0            999 V2000
    1.8252    6.5627   -8.5234 C   0  0  0  0  0  0  0  0  0  0  0  0
    1.7987    5.1630   -7.9121 C   0  0  0  0  0  0  0  0  0  0  0  0
    3.0006    4.4454   -8.1539 O   0  0  0  0  0  0  0  0  0  0  0  0
    4.0541    4.7619   -7.2830 C   0  0  0  0  0  0  0  0  0  0  0  0
    0.6793    4.3268   -8.5016 C   0  0  0  0  0  0  0  0  0  0  0  0
    0.2488    4.6600   -9.7060 N   0  0  0  0  0  0  0  0  0  0  0  0
   -0.7249    3.9637  -10.2619 C   0  0  0  0  0  0  0  0  0  0  0  0
   -1.3463    2.8966   -9.6335 C   0  0  0  0  0  0  0  0  0  0  0  0
   -0.9056    2.5428   -8.3699 C   0  0  0  0  0  0  0  0  0  0  0  0
    0.1396    3.2501   -7.7833 C   0  0  0  0  0  0  0  0  0  0  0  0
    0.6249    2.9092   -6.4377 C   0  0  0  0  0  0  0  0  0  0  0  0
   -0.0368    3.3836   -5.3268 N   0  0  0  0  0  0  0  0  0  0  0  0
   -1.2360    4.1775   -5.3241 C   0  0  0  0  0  0  0  0  0  0  0  0
   -2.4812    3.3316   -5.0598 C   0  0  0  0  0  0  0  0  0  0  0  0
    1.7301    2.1832   -6.0622 C   0  0  0  0  0  0  0  0  0  0  0  0
    2.7027    1.5189   -6.9829 C   0  0  0  0  0  0  0  0  0  0  0  0
    2.4374    0.0232   -7.2745 C   0  0  0  0  0  0  0  0  0  0  0  0
    0.9672   -0.2217   -7.6085 C   0  0  0  0  0  0  0  0  0  0  0  0
    3.3057   -0.4053   -8.4600 C   0  0  0  0  0  0  0  0  0  0  0  0
    2.7955   -0.8340   -6.0563 C   0  0  0  0  0  0  0  0  0  0  0  0
    4.2021   -0.7457   -5.8036 O   0  0  0  0  0  0  0  0  0  0  0  0
    4.6454   -1.3279   -4.7003 C   0  0  0  0  0  0  0  0  0  0  0  0
    6.1404   -1.1195   -4.5058 C   0  0  0  0  0  0  0  0  0  0  0  0
    6.7126   -2.2007   -3.7224 N   0  0  0  0  0  0  0  0  0  0  0  0
    7.9672   -1.8137   -3.2468 N   0  0  0  0  0  0  0  0  0  0  0  0
    8.1975   -1.1028   -2.1192 C   0  0  0  0  0  0  0  0  0  0  0  0
    6.9890   -0.9005   -1.1825 C   0  0  0  0  0  0  0  0  0  0  0  0
    7.1073   -1.7827   -0.0435 N   0  0  0  0  0  0  0  0  0  0  0  0
    6.6229   -3.0317   -0.0880 C   0  0  0  0  0  0  0  0  0  0  0  0
    6.6938   -3.7484    1.2628 C   0  0  0  0  0  0  0  0  0  0  0  0
    6.8029   -5.2712    1.1129 C   0  0  0  0  0  0  0  0  0  0  0  0
    6.6357   -5.9613    2.4633 C   0  0  0  0  0  0  0  0  0  0  0  0
    8.1660   -5.5978    0.5054 C   0  0  0  0  0  0  0  0  0  0  0  0
    5.5253   -3.3077    2.0249 N   0  0  0  0  0  0  0  0  0  0  0  0
    5.7416   -2.3945    2.9883 C   0  0  0  0  0  0  0  0  0  0  0  0
    4.5866   -1.9473    3.8993 C   0  0  0  0  0  0  0  0  0  0  0  0
    4.4866   -2.9299    5.0727 C   0  0  0  0  0  0  0  0  0  0  0  0
    3.4290   -2.4516    6.0689 C   0  0  0  0  0  0  0  0  0  0  0  0
    3.7022   -1.1002    6.4939 N   0  0  0  0  0  0  0  0  0  0  0  0
    3.9256   -0.8305    7.8049 C   0  0  0  0  0  0  0  0  0  0  0  0
    4.1522    0.5623    8.1075 C   0  0  0  0  0  0  0  0  0  0  0  0
    4.2801    1.6803    8.5370 C   0  0  0  0  0  0  0  0  0  0  0  0
    4.5597    3.0639    8.9195 C   0  0  0  0  0  0  0  0  0  0  0  0
    5.9069    3.4697    8.4831 N   0  0  0  0  0  0  0  0  0  0  0  0
    6.0966    3.4240    7.0459 C   0  0  0  0  0  0  0  0  0  0  0  0
    6.9766    2.7483    9.1496 C   0  0  0  0  0  0  0  0  0  0  0  0
    4.4379    3.1876   10.4461 C   0  0  0  0  0  0  0  0  0  0  0  0
    3.5055    3.9815    8.2769 C   0  0  0  0  0  0  0  0  0  0  0  0
    3.9142   -1.6848    8.6725 O   0  0  0  0  0  0  0  0  0  0  0  0
    3.7669   -0.1363    5.4252 C   0  0  0  0  0  0  0  0  0  0  0  0
    4.8495   -0.5320    4.4191 C   0  0  0  0  0  0  0  0  0  0  0  0
    6.8613   -1.9775    3.2522 O   0  0  0  0  0  0  0  0  0  0  0  0
    4.2285   -3.6690    1.4908 C   0  0  0  0  0  0  0  0  0  0  0  0
    6.1185   -3.5193   -1.0839 O   0  0  0  0  0  0  0  0  0  0  0  0
    6.9047    0.5640   -0.7498 C   0  0  0  0  0  0  0  0  0  0  0  0
    5.4733    1.0049   -0.4330 C   0  0  0  0  0  0  0  0  0  0  0  0
    4.5913    1.0669   -1.6910 C   0  0  0  0  0  0  0  0  0  0  0  0
    3.2660    1.5057   -1.3106 N   0  0  0  0  0  0  0  0  0  0  0  0
    2.7032    0.5691   -0.3525 C   0  0  0  0  0  0  0  0  0  0  0  0
    3.6141    0.5157    0.8716 C   0  0  0  0  0  0  0  0  0  0  0  0
    4.9227    0.1228    0.5259 O   0  0  0  0  0  0  0  0  0  0  0  0
    9.3039   -0.6876   -1.8272 O   0  0  0  0  0  0  0  0  0  0  0  0
    8.9137   -1.7956   -4.3470 C   0  0  0  0  0  0  0  0  0  0  0  0
    8.4384   -0.7829   -5.3975 C   0  0  0  0  0  0  0  0  0  0  0  0
    6.9782   -1.0402   -5.7860 C   0  0  0  0  0  0  0  0  0  0  0  0
    3.9498   -1.8929   -3.8958 O   0  0  0  0  0  0  0  0  0  0  0  0
    1.7660    2.2210   -4.6340 C   0  0  0  0  0  0  0  0  0  0  0  0
    0.6400    2.9664   -4.2138 C   0  0  0  0  0  0  0  0  0  0  0  0
    0.3873    3.1928   -2.8660 C   0  0  0  0  0  0  0  0  0  0  0  0
    1.2683    2.6740   -1.9484 C   0  0  0  0  0  0  0  0  0  0  0  0
    2.4025    1.9359   -2.3377 C   0  0  0  0  0  0  0  0  0  0  0  0
    2.6544    1.7177   -3.6809 C   0  0  0  0  0  0  0  0  0  0  0  0
    3.3573   -1.9217    3.2458 F   0  0  0  0  0  0  0  0  0  0  0  0
    0.8711    7.0538   -8.3557 H   0  0  0  0  0  0  0  0  0  0  0  0
    2.6137    7.1605   -8.0733 H   0  0  0  0  0  0  0  0  0  0  0  0
    1.9963    6.4818   -9.5920 H   0  0  0  0  0  0  0  0  0  0  0  0
    1.6436    5.2359   -6.8215 H   0  0  0  0  0  0  0  0  0  0  0  0
    3.7701    4.5820   -6.2380 H   0  0  0  0  0  0  0  0  0  0  0  0
    4.8773    4.1030   -7.5528 H   0  0  0  0  0  0  0  0  0  0  0  0
    4.3798    5.8024   -7.3891 H   0  0  0  0  0  0  0  0  0  0  0  0
   -1.0232    4.2884  -11.2501 H   0  0  0  0  0  0  0  0  0  0  0  0
   -2.1511    2.3616  -10.1130 H   0  0  0  0  0  0  0  0  0  0  0  0
   -1.3647    1.7219   -7.8377 H   0  0  0  0  0  0  0  0  0  0  0  0
   -1.1411    4.9450   -4.5490 H   0  0  0  0  0  0  0  0  0  0  0  0
   -1.3231    4.6773   -6.2933 H   0  0  0  0  0  0  0  0  0  0  0  0
   -2.3848    2.8057   -4.1131 H   0  0  0  0  0  0  0  0  0  0  0  0
   -3.3618    3.9670   -5.0211 H   0  0  0  0  0  0  0  0  0  0  0  0
   -2.6166    2.5978   -5.8501 H   0  0  0  0  0  0  0  0  0  0  0  0
    2.6917    2.0585   -7.9316 H   0  0  0  0  0  0  0  0  0  0  0  0
    3.7066    1.6023   -6.5613 H   0  0  0  0  0  0  0  0  0  0  0  0
    0.3346    0.0386   -6.7633 H   0  0  0  0  0  0  0  0  0  0  0  0
    0.6791    0.3830   -8.4640 H   0  0  0  0  0  0  0  0  0  0  0  0
    0.8015   -1.2687   -7.8533 H   0  0  0  0  0  0  0  0  0  0  0  0
    4.3557   -0.2274   -8.2452 H   0  0  0  0  0  0  0  0  0  0  0  0
    3.1715   -1.4649   -8.6671 H   0  0  0  0  0  0  0  0  0  0  0  0
    3.0323    0.1581   -9.3487 H   0  0  0  0  0  0  0  0  0  0  0  0
    2.2497   -0.5021   -5.1674 H   0  0  0  0  0  0  0  0  0  0  0  0
    2.5454   -1.8855   -6.2358 H   0  0  0  0  0  0  0  0  0  0  0  0
    6.2268   -0.1456   -3.9773 H   0  0  0  0  0  0  0  0  0  0  0  0
    6.1173   -2.6035   -3.0008 H   0  0  0  0  0  0  0  0  0  0  0  0
    6.0654   -1.1906   -1.6885 H   0  0  0  0  0  0  0  0  0  0  0  0
    7.4949   -1.4155    0.8123 H   0  0  0  0  0  0  0  0  0  0  0  0
    7.5657   -3.3901    1.8194 H   0  0  0  0  0  0  0  0  0  0  0  0
    6.0344   -5.6251    0.4196 H   0  0  0  0  0  0  0  0  0  0  0  0
    5.6423   -5.7941    2.8712 H   0  0  0  0  0  0  0  0  0  0  0  0
    6.7848   -7.0329    2.3557 H   0  0  0  0  0  0  0  0  0  0  0  0
    7.3673   -5.5809    3.1732 H   0  0  0  0  0  0  0  0  0  0  0  0
    8.2610   -6.6699    0.3525 H   0  0  0  0  0  0  0  0  0  0  0  0
    8.2817   -5.1030   -0.4555 H   0  0  0  0  0  0  0  0  0  0  0  0
    8.9675   -5.2709    1.1647 H   0  0  0  0  0  0  0  0  0  0  0  0
    4.2225   -3.9231    4.7065 H   0  0  0  0  0  0  0  0  0  0  0  0
    5.4638   -2.9830    5.5537 H   0  0  0  0  0  0  0  0  0  0  0  0
    2.4406   -2.4846    5.5940 H   0  0  0  0  0  0  0  0  0  0  0  0
    3.4237   -3.0853    6.9580 H   0  0  0  0  0  0  0  0  0  0  0  0
    7.0974    3.7917    6.8233 H   0  0  0  0  0  0  0  0  0  0  0  0
    6.0015    2.4095    6.6293 H   0  0  0  0  0  0  0  0  0  0  0  0
    5.3852    4.0787    6.5495 H   0  0  0  0  0  0  0  0  0  0  0  0
    6.9680    2.9647   10.2145 H   0  0  0  0  0  0  0  0  0  0  0  0
    6.9171    1.6604    9.0031 H   0  0  0  0  0  0  0  0  0  0  0  0
    7.9262    3.0982    8.7471 H   0  0  0  0  0  0  0  0  0  0  0  0
    4.9939    2.4049   10.9541 H   0  0  0  0  0  0  0  0  0  0  0  0
    4.8078    4.1599   10.7612 H   0  0  0  0  0  0  0  0  0  0  0  0
    3.3944    3.0939   10.7370 H   0  0  0  0  0  0  0  0  0  0  0  0
    2.5444    3.8305    8.7619 H   0  0  0  0  0  0  0  0  0  0  0  0
    3.8084    5.0175    8.4043 H   0  0  0  0  0  0  0  0  0  0  0  0
    3.3785    3.7716    7.2183 H   0  0  0  0  0  0  0  0  0  0  0  0
    2.7953   -0.1030    4.9149 H   0  0  0  0  0  0  0  0  0  0  0  0
    3.9776    0.8502    5.8416 H   0  0  0  0  0  0  0  0  0  0  0  0
    5.8349   -0.5187    4.8835 H   0  0  0  0  0  0  0  0  0  0  0  0
    4.8544    0.1616    3.5774 H   0  0  0  0  0  0  0  0  0  0  0  0
    3.5940   -4.1159    2.2562 H   0  0  0  0  0  0  0  0  0  0  0  0
    3.7216   -2.7983    1.0729 H   0  0  0  0  0  0  0  0  0  0  0  0
    4.3722   -4.3864    0.6887 H   0  0  0  0  0  0  0  0  0  0  0  0
    7.5334    0.7067    0.1301 H   0  0  0  0  0  0  0  0  0  0  0  0
    7.2984    1.2040   -1.5414 H   0  0  0  0  0  0  0  0  0  0  0  0
    5.5008    2.0222   -0.0028 H   0  0  0  0  0  0  0  0  0  0  0  0
    5.0196    1.7923   -2.3863 H   0  0  0  0  0  0  0  0  0  0  0  0
    4.5544    0.0737   -2.1664 H   0  0  0  0  0  0  0  0  0  0  0  0
    1.7059    0.8916   -0.0564 H   0  0  0  0  0  0  0  0  0  0  0  0
    2.6330   -0.4406   -0.7924 H   0  0  0  0  0  0  0  0  0  0  0  0
    3.6400    1.5098    1.3456 H   0  0  0  0  0  0  0  0  0  0  0  0
    3.2481   -0.2214    1.5860 H   0  0  0  0  0  0  0  0  0  0  0  0
    9.8921   -1.5230   -3.9522 H   0  0  0  0  0  0  0  0  0  0  0  0
    8.9458   -2.8004   -4.7728 H   0  0  0  0  0  0  0  0  0  0  0  0
    8.5302    0.2228   -4.9798 H   0  0  0  0  0  0  0  0  0  0  0  0
    9.0773   -0.8441   -6.2785 H   0  0  0  0  0  0  0  0  0  0  0  0
    6.8961   -1.9927   -6.3103 H   0  0  0  0  0  0  0  0  0  0  0  0
    6.6113   -0.2468   -6.4367 H   0  0  0  0  0  0  0  0  0  0  0  0
   -0.4659    3.7690   -2.5404 H   0  0  0  0  0  0  0  0  0  0  0  0
    1.1070    2.8550   -0.8968 H   0  0  0  0  0  0  0  0  0  0  0  0
    3.5262    1.1719   -4.0037 H   0  0  0  0  0  0  0  0  0  0  0  0
  1  2  1  0  0  0  0
  2  3  1  0  0  0  0
  3  4  1  0  0  0  0
  2  5  1  0  0  0  0
  5  6  4  0  0  0  0
  6  7  4  0  0  0  0
  7  8  4  0  0  0  0
  8  9  4  0  0  0  0
  5 10  4  0  0  0  0
  9 10  4  0  0  0  0
 10 11  1  0  0  0  0
 11 12  1  0  0  0  0
 12 13  1  0  0  0  0
 13 14  1  0  0  0  0
 11 15  2  0  0  0  0
 15 16  1  0  0  0  0
 16 17  1  0  0  0  0
 17 18  1  0  0  0  0
 17 19  1  0  0  0  0
 17 20  1  0  0  0  0
 20 21  1  0  0  0  0
 21 22  1  0  0  0  0
 22 23  1  0  0  0  0
 23 24  1  0  0  0  0
 24 25  1  0  0  0  0
 25 26  4  0  0  0  0
 26 27  1  0  0  0  0
 27 28  1  0  0  0  0
 28 29  4  0  0  0  0
 29 30  1  0  0  0  0
 30 31  1  0  0  0  0
 31 32  1  0  0  0  0
 31 33  1  0  0  0  0
 30 34  1  0  0  0  0
 34 35  4  0  0  0  0
 35 36  1  0  0  0  0
 36 37  1  0  0  0  0
 37 38  1  0  0  0  0
 38 39  1  0  0  0  0
 39 40  4  0  0  0  0
 40 41  1  0  0  0  0
 41 42  3  0  0  0  0
 42 43  1  0  0  0  0
 43 44  1  0  0  0  0
 44 45  1  0  0  0  0
 44 46  1  0  0  0  0
 43 47  1  0  0  0  0
 43 48  1  0  0  0  0
 40 49  2  0  0  0  0
 39 50  1  0  0  0  0
 36 51  1  0  0  0  0
 50 51  1  0  0  0  0
 35 52  2  0  0  0  0
 34 53  1  0  0  0  0
 29 54  2  0  0  0  0
 27 55  1  0  0  0  0
 55 56  1  0  0  0  0
 56 57  1  0  0  0  0
 57 58  1  0  0  0  0
 58 59  1  0  0  0  0
 59 60  1  0  0  0  0
 56 61  1  0  0  0  0
 60 61  1  0  0  0  0
 26 62  2  0  0  0  0
 25 63  1  0  0  0  0
 63 64  1  0  0  0  0
 23 65  1  0  0  0  0
 64 65  1  0  0  0  0
 22 66  2  0  0  0  0
 15 67  4  0  0  0  0
 12 68  1  0  0  0  0
 67 68  4  0  0  0  0
 68 69  4  0  0  0  0
 69 70  2  0  0  0  0
 58 71  1  0  0  0  0
 70 71  4  0  0  0  0
 67 72  4  0  0  0  0
 71 72  4  0  0  0  0
 36 73  1  0  0  0  0
  1 74  1  0  0  0  0
  1 75  1  0  0  0  0
  1 76  1  0  0  0  0
  2 77  1  0  0  0  0
  4 78  1  0  0  0  0
  4 79  1  0  0  0  0
  4 80  1  0  0  0  0
  7 81  1  0  0  0  0
  8 82  1  0  0  0  0
  9 83  1  0  0  0  0
 13 84  1  0  0  0  0
 13 85  1  0  0  0  0
 14 86  1  0  0  0  0
 14 87  1  0  0  0  0
 14 88  1  0  0  0  0
 16 89  1  0  0  0  0
 16 90  1  0  0  0  0
 18 91  1  0  0  0  0
 18 92  1  0  0  0  0
 18 93  1  0  0  0  0
 19 94  1  0  0  0  0
 19 95  1  0  0  0  0
 19 96  1  0  0  0  0
 20 97  1  0  0  0  0
 20 98  1  0  0  0  0
 23 99  1  0  0  0  0
 24100  1  0  0  0  0
 27101  1  0  0  0  0
 28102  1  0  0  0  0
 30103  1  0  0  0  0
 31104  1  0  0  0  0
 32105  1  0  0  0  0
 32106  1  0  0  0  0
 32107  1  0  0  0  0
 33108  1  0  0  0  0
 33109  1  0  0  0  0
 33110  1  0  0  0  0
 37111  1  0  0  0  0
 37112  1  0  0  0  0
 38113  1  0  0  0  0
 38114  1  0  0  0  0
 45115  1  0  0  0  0
 45116  1  0  0  0  0
 45117  1  0  0  0  0
 46118  1  0  0  0  0
 46119  1  0  0  0  0
 46120  1  0  0  0  0
 47121  1  0  0  0  0
 47122  1  0  0  0  0
 47123  1  0  0  0  0
 48124  1  0  0  0  0
 48125  1  0  0  0  0
 48126  1  0  0  0  0
 50127  1  0  0  0  0
 50128  1  0  0  0  0
 51129  1  0  0  0  0
 51130  1  0  0  0  0
 53131  1  0  0  0  0
 53132  1  0  0  0  0
 53133  1  0  0  0  0
 55134  1  0  0  0  0
 55135  1  0  0  0  0
 56136  1  0  0  0  0
 57137  1  0  0  0  0
 57138  1  0  0  0  0
 59139  1  0  0  0  0
 59140  1  0  0  0  0
 60141  1  0  0  0  0
 60142  1  0  0  0  0
 63143  1  0  0  0  0
 63144  1  0  0  0  0
 64145  1  0  0  0  0
 64146  1  0  0  0  0
 65147  1  0  0  0  0
 65148  1  0  0  0  0
 69149  1  0  0  0  0
 70150  1  0  0  0  0
 72151  1  0  0  0  0
M  END
$$$$
