 energy: -221.286998180127 gnorm: 0.000331447603 xtb: 6.7.1 (edcfbbe)
          08232515203D

151157  0     0  0            999 V2000
    1.8075   -2.0138   -8.5217 C   0  0  0  0  0  0  0  0  0  0  0  0
    2.2923   -1.5298   -7.1540 C   0  0  0  0  0  0  0  0  0  0  0  0
    3.6896   -1.2722   -7.1333 O   0  0  0  0  0  0  0  0  0  0  0  0
    4.0778   -0.0910   -7.7829 C   0  0  0  0  0  0  0  0  0  0  0  0
    2.0465   -2.5958   -6.1043 C   0  0  0  0  0  0  0  0  0  0  0  0
    2.3831   -3.8272   -6.4499 N   0  0  0  0  0  0  0  0  0  0  0  0
    2.2640   -4.8046   -5.5731 C   0  0  0  0  0  0  0  0  0  0  0  0
    1.7908   -4.6105   -4.2846 C   0  0  0  0  0  0  0  0  0  0  0  0
    1.4126   -3.3313   -3.9216 C   0  0  0  0  0  0  0  0  0  0  0  0
    1.5341   -2.2861   -4.8364 C   0  0  0  0  0  0  0  0  0  0  0  0
    1.1353   -0.9357   -4.4242 C   0  0  0  0  0  0  0  0  0  0  0  0
    0.0316   -0.3000   -4.9573 N   0  0  0  0  0  0  0  0  0  0  0  0
   -0.9312   -0.8770   -5.8652 C   0  0  0  0  0  0  0  0  0  0  0  0
   -1.0776   -0.0875   -7.1654 C   0  0  0  0  0  0  0  0  0  0  0  0
    1.7168   -0.1526   -3.4512 C   0  0  0  0  0  0  0  0  0  0  0  0
    2.8276   -0.4687   -2.4960 C   0  0  0  0  0  0  0  0  0  0  0  0
    4.2796   -0.1984   -2.9510 C   0  0  0  0  0  0  0  0  0  0  0  0
    4.6870   -1.1894   -4.0408 C   0  0  0  0  0  0  0  0  0  0  0  0
    5.1969   -0.3918   -1.7388 C   0  0  0  0  0  0  0  0  0  0  0  0
    4.4346    1.2306   -3.5154 C   0  0  0  0  0  0  0  0  0  0  0  0
    4.7926    2.2163   -2.5371 O   0  0  0  0  0  0  0  0  0  0  0  0
    6.0727    2.5719   -2.4803 C   0  0  0  0  0  0  0  0  0  0  0  0
    6.2975    3.6774   -1.4509 C   0  0  0  0  0  0  0  0  0  0  0  0
    5.9205    3.2432   -0.1106 N   0  0  0  0  0  0  0  0  0  0  0  0
    5.9813    4.3219    0.7798 N   0  0  0  0  0  0  0  0  0  0  0  0
    4.9792    5.1768    1.0785 C   0  0  0  0  0  0  0  0  0  0  0  0
    3.6022    4.8468    0.4693 C   0  0  0  0  0  0  0  0  0  0  0  0
    2.7845    4.1610    1.4507 N   0  0  0  0  0  0  0  0  0  0  0  0
    2.7476    2.8250    1.5376 C   0  0  0  0  0  0  0  0  0  0  0  0
    1.7966    2.2752    2.6027 C   0  0  0  0  0  0  0  0  0  0  0  0
    2.5147    2.0262    3.9417 C   0  0  0  0  0  0  0  0  0  0  0  0
    1.4966    1.5911    4.9949 C   0  0  0  0  0  0  0  0  0  0  0  0
    3.2350    3.2891    4.4111 C   0  0  0  0  0  0  0  0  0  0  0  0
    1.1369    1.0798    2.0775 N   0  0  0  0  0  0  0  0  0  0  0  0
   -0.0752    1.2727    1.5306 C   0  0  0  0  0  0  0  0  0  0  0  0
   -0.8616    0.0861    0.9439 C   0  0  0  0  0  0  0  0  0  0  0  0
   -0.3893   -0.2166   -0.4817 C   0  0  0  0  0  0  0  0  0  0  0  0
   -1.2597   -1.2995   -1.1220 C   0  0  0  0  0  0  0  0  0  0  0  0
   -2.6408   -0.8866   -1.1000 N   0  0  0  0  0  0  0  0  0  0  0  0
   -3.2706   -0.5637   -2.2517 C   0  0  0  0  0  0  0  0  0  0  0  0
   -4.5508    0.0799   -2.1135 C   0  0  0  0  0  0  0  0  0  0  0  0
   -5.5943    0.6792   -2.1697 C   0  0  0  0  0  0  0  0  0  0  0  0
   -6.7977    1.4902   -2.3399 C   0  0  0  0  0  0  0  0  0  0  0  0
   -6.7361    2.2306   -3.6118 N   0  0  0  0  0  0  0  0  0  0  0  0
   -5.6195    3.1560   -3.6911 C   0  0  0  0  0  0  0  0  0  0  0  0
   -6.7517    1.3737   -4.7846 C   0  0  0  0  0  0  0  0  0  0  0  0
   -8.0288    0.5703   -2.3205 C   0  0  0  0  0  0  0  0  0  0  0  0
   -6.9119    2.4764   -1.1656 C   0  0  0  0  0  0  0  0  0  0  0  0
   -2.8017   -0.7887   -3.3565 O   0  0  0  0  0  0  0  0  0  0  0  0
   -3.1618   -0.6490    0.2216 C   0  0  0  0  0  0  0  0  0  0  0  0
   -2.3537    0.4345    0.9352 C   0  0  0  0  0  0  0  0  0  0  0  0
   -0.5851    2.3841    1.4713 O   0  0  0  0  0  0  0  0  0  0  0  0
    1.9093   -0.1438    2.0601 C   0  0  0  0  0  0  0  0  0  0  0  0
    3.4137    2.1010    0.8102 O   0  0  0  0  0  0  0  0  0  0  0  0
    2.9227    6.1329   -0.0017 C   0  0  0  0  0  0  0  0  0  0  0  0
    1.5446    5.9155   -0.6469 C   0  0  0  0  0  0  0  0  0  0  0  0
    1.4428    4.5579   -1.3409 C   0  0  0  0  0  0  0  0  0  0  0  0
    0.1403    4.3632   -1.9467 N   0  0  0  0  0  0  0  0  0  0  0  0
   -0.8991    4.5312   -0.9350 C   0  0  0  0  0  0  0  0  0  0  0  0
   -0.7302    5.8813   -0.2384 C   0  0  0  0  0  0  0  0  0  0  0  0
    0.5444    6.0154    0.3497 O   0  0  0  0  0  0  0  0  0  0  0  0
    5.1295    6.1189    1.8355 O   0  0  0  0  0  0  0  0  0  0  0  0
    7.3631    4.6985    1.0147 C   0  0  0  0  0  0  0  0  0  0  0  0
    7.9689    5.1596   -0.3142 C   0  0  0  0  0  0  0  0  0  0  0  0
    7.7733    4.0826   -1.3815 C   0  0  0  0  0  0  0  0  0  0  0  0
    6.9428    2.1359   -3.1862 O   0  0  0  0  0  0  0  0  0  0  0  0
    0.9288    1.0340   -3.3874 C   0  0  0  0  0  0  0  0  0  0  0  0
   -0.1376    0.8881   -4.3001 C   0  0  0  0  0  0  0  0  0  0  0  0
   -1.1419    1.8511   -4.3570 C   0  0  0  0  0  0  0  0  0  0  0  0
   -1.0329    2.9611   -3.5498 C   0  0  0  0  0  0  0  0  0  0  0  0
    0.0568    3.1515   -2.6791 C   0  0  0  0  0  0  0  0  0  0  0  0
    1.0307    2.1729   -2.5923 C   0  0  0  0  0  0  0  0  0  0  0  0
   -0.7002   -1.0485    1.7408 F   0  0  0  0  0  0  0  0  0  0  0  0
    0.7586   -2.2918   -8.4646 H   0  0  0  0  0  0  0  0  0  0  0  0
    1.9248   -1.2377   -9.2742 H   0  0  0  0  0  0  0  0  0  0  0  0
    2.3876   -2.8865   -8.8056 H   0  0  0  0  0  0  0  0  0  0  0  0
    1.7702   -0.6044   -6.8650 H   0  0  0  0  0  0  0  0  0  0  0  0
    3.5215    0.7747   -7.3986 H   0  0  0  0  0  0  0  0  0  0  0  0
    5.1371    0.0377   -7.5677 H   0  0  0  0  0  0  0  0  0  0  0  0
    3.9382   -0.1496   -8.8676 H   0  0  0  0  0  0  0  0  0  0  0  0
    2.5584   -5.7848   -5.9245 H   0  0  0  0  0  0  0  0  0  0  0  0
    1.7092   -5.4345   -3.5927 H   0  0  0  0  0  0  0  0  0  0  0  0
    1.0116   -3.1318   -2.9376 H   0  0  0  0  0  0  0  0  0  0  0  0
   -0.6151   -1.8998   -6.0862 H   0  0  0  0  0  0  0  0  0  0  0  0
   -1.8968   -0.9146   -5.3520 H   0  0  0  0  0  0  0  0  0  0  0  0
   -1.3940    0.9318   -6.9659 H   0  0  0  0  0  0  0  0  0  0  0  0
   -0.1421   -0.0508   -7.7162 H   0  0  0  0  0  0  0  0  0  0  0  0
   -1.8270   -0.5654   -7.7912 H   0  0  0  0  0  0  0  0  0  0  0  0
    2.6566    0.1266   -1.5956 H   0  0  0  0  0  0  0  0  0  0  0  0
    2.7720   -1.5242   -2.2176 H   0  0  0  0  0  0  0  0  0  0  0  0
    4.5267   -2.2106   -3.7019 H   0  0  0  0  0  0  0  0  0  0  0  0
    4.1125   -1.0418   -4.9489 H   0  0  0  0  0  0  0  0  0  0  0  0
    5.7414   -1.0736   -4.2809 H   0  0  0  0  0  0  0  0  0  0  0  0
    4.9062    0.2625   -0.9191 H   0  0  0  0  0  0  0  0  0  0  0  0
    5.1397   -1.4219   -1.3944 H   0  0  0  0  0  0  0  0  0  0  0  0
    6.2294   -0.1777   -2.0049 H   0  0  0  0  0  0  0  0  0  0  0  0
    5.2122    1.2337   -4.2848 H   0  0  0  0  0  0  0  0  0  0  0  0
    3.4911    1.5707   -3.9472 H   0  0  0  0  0  0  0  0  0  0  0  0
    5.6909    4.5423   -1.7858 H   0  0  0  0  0  0  0  0  0  0  0  0
    5.0331    2.7449   -0.0490 H   0  0  0  0  0  0  0  0  0  0  0  0
    3.7350    4.1711   -0.3792 H   0  0  0  0  0  0  0  0  0  0  0  0
    2.1735    4.7400    2.0059 H   0  0  0  0  0  0  0  0  0  0  0  0
    1.0001    3.0098    2.7653 H   0  0  0  0  0  0  0  0  0  0  0  0
    3.2616    1.2393    3.8058 H   0  0  0  0  0  0  0  0  0  0  0  0
    2.0022    1.3384    5.9236 H   0  0  0  0  0  0  0  0  0  0  0  0
    0.7965    2.3996    5.1943 H   0  0  0  0  0  0  0  0  0  0  0  0
    0.9268    0.7254    4.6677 H   0  0  0  0  0  0  0  0  0  0  0  0
    3.6887    3.1085    5.3827 H   0  0  0  0  0  0  0  0  0  0  0  0
    4.0233    3.5817    3.7221 H   0  0  0  0  0  0  0  0  0  0  0  0
    2.5369    4.1172    4.5141 H   0  0  0  0  0  0  0  0  0  0  0  0
   -0.4638    0.7038   -1.0639 H   0  0  0  0  0  0  0  0  0  0  0  0
    0.6512   -0.5376   -0.4916 H   0  0  0  0  0  0  0  0  0  0  0  0
   -0.9672   -1.4490   -2.1631 H   0  0  0  0  0  0  0  0  0  0  0  0
   -1.1542   -2.2407   -0.5702 H   0  0  0  0  0  0  0  0  0  0  0  0
   -5.6925    3.9030   -2.9051 H   0  0  0  0  0  0  0  0  0  0  0  0
   -4.6420    2.6566   -3.6227 H   0  0  0  0  0  0  0  0  0  0  0  0
   -5.6757    3.6741   -4.6476 H   0  0  0  0  0  0  0  0  0  0  0  0
   -7.6883    0.8246   -4.8368 H   0  0  0  0  0  0  0  0  0  0  0  0
   -6.6887    2.0061   -5.6689 H   0  0  0  0  0  0  0  0  0  0  0  0
   -5.9140    0.6621   -4.8062 H   0  0  0  0  0  0  0  0  0  0  0  0
   -8.1913    0.1968   -1.3123 H   0  0  0  0  0  0  0  0  0  0  0  0
   -8.9031    1.1346   -2.6338 H   0  0  0  0  0  0  0  0  0  0  0  0
   -7.8971   -0.2863   -2.9757 H   0  0  0  0  0  0  0  0  0  0  0  0
   -7.1840    1.9403   -0.2596 H   0  0  0  0  0  0  0  0  0  0  0  0
   -5.9717    2.9882   -0.9792 H   0  0  0  0  0  0  0  0  0  0  0  0
   -7.6828    3.2091   -1.3882 H   0  0  0  0  0  0  0  0  0  0  0  0
   -4.2092   -0.3509    0.1495 H   0  0  0  0  0  0  0  0  0  0  0  0
   -3.0965   -1.5839    0.7921 H   0  0  0  0  0  0  0  0  0  0  0  0
   -2.7009    0.5410    1.9638 H   0  0  0  0  0  0  0  0  0  0  0  0
   -2.4736    1.3932    0.4310 H   0  0  0  0  0  0  0  0  0  0  0  0
    1.9458   -0.5933    3.0543 H   0  0  0  0  0  0  0  0  0  0  0  0
    1.4844   -0.8704    1.3789 H   0  0  0  0  0  0  0  0  0  0  0  0
    2.9197    0.0904    1.7261 H   0  0  0  0  0  0  0  0  0  0  0  0
    2.8050    6.8047    0.8503 H   0  0  0  0  0  0  0  0  0  0  0  0
    3.5831    6.6184   -0.7216 H   0  0  0  0  0  0  0  0  0  0  0  0
    1.3674    6.7099   -1.3927 H   0  0  0  0  0  0  0  0  0  0  0  0
    2.1996    4.4898   -2.1260 H   0  0  0  0  0  0  0  0  0  0  0  0
    1.6101    3.7824   -0.5819 H   0  0  0  0  0  0  0  0  0  0  0  0
   -1.8786    4.4873   -1.4124 H   0  0  0  0  0  0  0  0  0  0  0  0
   -0.8351    3.7408   -0.1716 H   0  0  0  0  0  0  0  0  0  0  0  0
   -0.8847    6.6949   -0.9642 H   0  0  0  0  0  0  0  0  0  0  0  0
   -1.4514    5.9752    0.5747 H   0  0  0  0  0  0  0  0  0  0  0  0
    7.3760    5.4954    1.7580 H   0  0  0  0  0  0  0  0  0  0  0  0
    7.8915    3.8208    1.3920 H   0  0  0  0  0  0  0  0  0  0  0  0
    7.4725    6.0821   -0.6253 H   0  0  0  0  0  0  0  0  0  0  0  0
    9.0297    5.3711   -0.1830 H   0  0  0  0  0  0  0  0  0  0  0  0
    8.3524    3.1949   -1.1258 H   0  0  0  0  0  0  0  0  0  0  0  0
    8.1067    4.4369   -2.3566 H   0  0  0  0  0  0  0  0  0  0  0  0
   -2.0016    1.7317   -4.9969 H   0  0  0  0  0  0  0  0  0  0  0  0
   -1.7973    3.7227   -3.5912 H   0  0  0  0  0  0  0  0  0  0  0  0
    1.8686    2.2446   -1.9201 H   0  0  0  0  0  0  0  0  0  0  0  0
  1  2  1  0  0  0  0
  2  3  1  0  0  0  0
  2  5  1  0  0  0  0
  3  4  1  0  0  0  0
  5  6  2  0  0  0  0
  5 10  1  0  0  0  0
  6  7  1  0  0  0  0
  7  8  2  0  0  0  0
  8  9  1  0  0  0  0
  9 10  2  0  0  0  0
 10 11  1  0  0  0  0
 11 12  1  0  0  0  0
 11 15  2  0  0  0  0
 12 13  1  0  0  0  0
 12 68  1  0  0  0  0
 13 14  1  0  0  0  0
 15 16  1  0  0  0  0
 15 67  1  0  0  0  0
 16 17  1  0  0  0  0
 17 18  1  0  0  0  0
 17 19  1  0  0  0  0
 17 20  1  0  0  0  0
 20 21  1  0  0  0  0
 21 22  1  0  0  0  0
 22 23  1  0  0  0  0
 22 66  2  0  0  0  0
 23 24  1  0  0  0  0
 23 65  1  0  0  0  0
 24 25  1  0  0  0  0
 25 26  1  0  0  0  0
 25 63  1  0  0  0  0
 26 27  1  0  0  0  0
 26 62  2  0  0  0  0
 27 28  1  0  0  0  0
 27 55  1  0  0  0  0
 28 29  1  0  0  0  0
 29 30  1  0  0  0  0
 29 54  2  0  0  0  0
 30 31  1  0  0  0  0
 30 34  1  0  0  0  0
 31 32  1  0  0  0  0
 31 33  1  0  0  0  0
 34 35  1  0  0  0  0
 34 53  1  0  0  0  0
 35 36  1  0  0  0  0
 35 52  2  0  0  0  0
 36 37  1  0  0  0  0
 36 51  1  0  0  0  0
 36 73  1  0  0  0  0
 37 38  1  0  0  0  0
 38 39  1  0  0  0  0
 39 40  1  0  0  0  0
 39 50  1  0  0  0  0
 40 41  1  0  0  0  0
 40 49  2  0  0  0  0
 42 43  1  0  0  0  0
 43 44  1  0  0  0  0
 43 47  1  0  0  0  0
 43 48  1  0  0  0  0
 44 45  1  0  0  0  0
 44 46  1  0  0  0  0
 50 51  1  0  0  0  0
 55 56  1  0  0  0  0
 56 57  1  0  0  0  0
 56 61  1  0  0  0  0
 57 58  1  0  0  0  0
 58 59  1  0  0  0  0
 58 71  1  0  0  0  0
 59 60  1  0  0  0  0
 60 61  1  0  0  0  0
 63 64  1  0  0  0  0
 64 65  1  0  0  0  0
 67 68  2  0  0  0  0
 67 72  1  0  0  0  0
 68 69  1  0  0  0  0
 69 70  2  0  0  0  0
 70 71  1  0  0  0  0
 71 72  2  0  0  0  0
 41 42  3  0  0  0  0
  1 74  1  0  0  0  0
  1 75  1  0  0  0  0
  1 76  1  0  0  0  0
  2 77  1  0  0  0  0
  4 78  1  0  0  0  0
  4 79  1  0  0  0  0
  4 80  1  0  0  0  0
  7 81  1  0  0  0  0
  8 82  1  0  0  0  0
  9 83  1  0  0  0  0
 13 84  1  0  0  0  0
 13 85  1  0  0  0  0
 14 86  1  0  0  0  0
 14 87  1  0  0  0  0
 14 88  1  0  0  0  0
 16 89  1  0  0  0  0
 16 90  1  0  0  0  0
 18 91  1  0  0  0  0
 18 92  1  0  0  0  0
 18 93  1  0  0  0  0
 19 94  1  0  0  0  0
 19 95  1  0  0  0  0
 19 96  1  0  0  0  0
 20 97  1  0  0  0  0
 20 98  1  0  0  0  0
 23 99  1  0  0  0  0
 24100  1  0  0  0  0
 27101  1  0  0  0  0
 28102  1  0  0  0  0
 30103  1  0  0  0  0
 31104  1  0  0  0  0
 32105  1  0  0  0  0
 32106  1  0  0  0  0
 32107  1  0  0  0  0
 33108  1  0  0  0  0
 33109  1  0  0  0  0
 33110  1  0  0  0  0
 37111  1  0  0  0  0
 37112  1  0  0  0  0
 38113  1  0  0  0  0
 38114  1  0  0  0  0
 45115  1  0  0  0  0
 45116  1  0  0  0  0
 45117  1  0  0  0  0
 46118  1  0  0  0  0
 46119  1  0  0  0  0
 46120  1  0  0  0  0
 47121  1  0  0  0  0
 47122  1  0  0  0  0
 47123  1  0  0  0  0
 48124  1  0  0  0  0
 48125  1  0  0  0  0
 48126  1  0  0  0  0
 50127  1  0  0  0  0
 50128  1  0  0  0  0
 51129  1  0  0  0  0
 51130  1  0  0  0  0
 53131  1  0  0  0  0
 53132  1  0  0  0  0
 53133  1  0  0  0  0
 55134  1  0  0  0  0
 55135  1  0  0  0  0
 56136  1  0  0  0  0
 57137  1  0  0  0  0
 57138  1  0  0  0  0
 59139  1  0  0  0  0
 59140  1  0  0  0  0
 60141  1  0  0  0  0
 60142  1  0  0  0  0
 63143  1  0  0  0  0
 63144  1  0  0  0  0
 64145  1  0  0  0  0
 64146  1  0  0  0  0
 65147  1  0  0  0  0
 65148  1  0  0  0  0
 69149  1  0  0  0  0
 70150  1  0  0  0  0
 72151  1  0  0  0  0
M  END
$$$$
