 xtb: 6.7.1 (edcfbbe)
          08172521383D

151157  0     0  0            999 V2000
    2.6376    6.9835   -7.9704 C   0  0  0  0  0  0  0  0  0  0  0  0
    2.6756    5.4937   -7.6257 C   0  0  0  0  0  0  0  0  0  0  0  0
    3.7872    4.8260   -8.2042 O   0  0  0  0  0  0  0  0  0  0  0  0
    5.0223    5.1137   -7.6024 C   0  0  0  0  0  0  0  0  0  0  0  0
    1.4417    4.7978   -8.1649 C   0  0  0  0  0  0  0  0  0  0  0  0
    1.0493    5.1676   -9.3729 N   0  0  0  0  0  0  0  0  0  0  0  0
   -0.0162    4.6079   -9.9111 C   0  0  0  0  0  0  0  0  0  0  0  0
   -0.7748    3.6462   -9.2613 C   0  0  0  0  0  0  0  0  0  0  0  0
   -0.3773    3.2571   -7.9953 C   0  0  0  0  0  0  0  0  0  0  0  0
    0.7613    3.8234   -7.4225 C   0  0  0  0  0  0  0  0  0  0  0  0
    1.1784    3.4202   -6.0745 C   0  0  0  0  0  0  0  0  0  0  0  0
    0.4162    3.7658   -4.9791 N   0  0  0  0  0  0  0  0  0  0  0  0
   -0.7047    4.6672   -4.9788 C   0  0  0  0  0  0  0  0  0  0  0  0
   -0.2597    6.1161   -4.7816 C   0  0  0  0  0  0  0  0  0  0  0  0
    2.2666    2.6755   -5.6823 C   0  0  0  0  0  0  0  0  0  0  0  0
    3.2920    2.0752   -6.5886 C   0  0  0  0  0  0  0  0  0  0  0  0
    3.0158    0.6178   -7.0286 C   0  0  0  0  0  0  0  0  0  0  0  0
    3.9455    0.2781   -8.1961 C   0  0  0  0  0  0  0  0  0  0  0  0
    1.5636    0.4394   -7.4685 C   0  0  0  0  0  0  0  0  0  0  0  0
    3.2856   -0.3517   -5.8731 C   0  0  0  0  0  0  0  0  0  0  0  0
    4.6752   -0.3111   -5.5319 O   0  0  0  0  0  0  0  0  0  0  0  0
    5.0401   -0.9360   -4.4242 C   0  0  0  0  0  0  0  0  0  0  0  0
    6.5231   -0.7580   -4.1310 C   0  0  0  0  0  0  0  0  0  0  0  0
    7.0480   -1.9048   -3.4093 N   0  0  0  0  0  0  0  0  0  0  0  0
    8.2744   -1.5643   -2.8339 N   0  0  0  0  0  0  0  0  0  0  0  0
    8.4396   -0.9401   -1.6446 C   0  0  0  0  0  0  0  0  0  0  0  0
    7.1852   -0.8255   -0.7547 C   0  0  0  0  0  0  0  0  0  0  0  0
    7.2568   -1.8116    0.2997 N   0  0  0  0  0  0  0  0  0  0  0  0
    6.7705   -3.0480    0.1217 C   0  0  0  0  0  0  0  0  0  0  0  0
    6.7800   -3.8747    1.4105 C   0  0  0  0  0  0  0  0  0  0  0  0
    6.8066   -5.3850    1.1487 C   0  0  0  0  0  0  0  0  0  0  0  0
    6.5747   -6.1623    2.4411 C   0  0  0  0  0  0  0  0  0  0  0  0
    8.1616   -5.7436    0.5406 C   0  0  0  0  0  0  0  0  0  0  0  0
    5.6261   -3.4220    2.1901 N   0  0  0  0  0  0  0  0  0  0  0  0
    5.8764   -2.5350    3.1694 C   0  0  0  0  0  0  0  0  0  0  0  0
    4.7530   -2.0770    4.1118 C   0  0  0  0  0  0  0  0  0  0  0  0
    4.6986   -3.0473    5.2985 C   0  0  0  0  0  0  0  0  0  0  0  0
    3.6819   -2.5572    6.3305 C   0  0  0  0  0  0  0  0  0  0  0  0
    3.9706   -1.2008    6.7290 N   0  0  0  0  0  0  0  0  0  0  0  0
    4.2263   -0.9133    8.0302 C   0  0  0  0  0  0  0  0  0  0  0  0
    4.4531    0.4846    8.3085 C   0  0  0  0  0  0  0  0  0  0  0  0
    4.5816    1.6114    8.7145 C   0  0  0  0  0  0  0  0  0  0  0  0
    4.8564    3.0026    9.0721 C   0  0  0  0  0  0  0  0  0  0  0  0
    6.2296    3.3825    8.6982 N   0  0  0  0  0  0  0  0  0  0  0  0
    6.4979    3.2845    7.2760 C   0  0  0  0  0  0  0  0  0  0  0  0
    7.2538    2.6762    9.4474 C   0  0  0  0  0  0  0  0  0  0  0  0
    4.6520    3.1725   10.5852 C   0  0  0  0  0  0  0  0  0  0  0  0
    3.8490    3.9109    8.3462 C   0  0  0  0  0  0  0  0  0  0  0  0
    4.2416   -1.7560    8.9090 O   0  0  0  0  0  0  0  0  0  0  0  0
    3.9941   -0.2481    5.6485 C   0  0  0  0  0  0  0  0  0  0  0  0
    5.0357   -0.6561    4.6050 C   0  0  0  0  0  0  0  0  0  0  0  0
    7.0111   -2.1515    3.4248 O   0  0  0  0  0  0  0  0  0  0  0  0
    4.3175   -3.7047    1.6372 C   0  0  0  0  0  0  0  0  0  0  0  0
    6.3046   -3.4420   -0.9325 O   0  0  0  0  0  0  0  0  0  0  0  0
    7.0693    0.5913   -0.1892 C   0  0  0  0  0  0  0  0  0  0  0  0
    5.6201    1.0144    0.0667 C   0  0  0  0  0  0  0  0  0  0  0  0
    4.8219    1.1818   -1.2368 C   0  0  0  0  0  0  0  0  0  0  0  0
    3.4739    1.5965   -0.9115 N   0  0  0  0  0  0  0  0  0  0  0  0
    2.8502    0.5897   -0.0689 C   0  0  0  0  0  0  0  0  0  0  0  0
    3.6778    0.4410    1.2052 C   0  0  0  0  0  0  0  0  0  0  0  0
    5.0061    0.0655    0.9177 O   0  0  0  0  0  0  0  0  0  0  0  0
    9.5254   -0.5412   -1.2660 O   0  0  0  0  0  0  0  0  0  0  0  0
    9.2809   -1.4607   -3.8746 C   0  0  0  0  0  0  0  0  0  0  0  0
    8.8677   -0.3614   -4.8619 C   0  0  0  0  0  0  0  0  0  0  0  0
    7.4313   -0.5770   -5.3510 C   0  0  0  0  0  0  0  0  0  0  0  0
    4.2895   -1.5152   -3.6813 O   0  0  0  0  0  0  0  0  0  0  0  0
    2.2014    2.5896   -4.2580 C   0  0  0  0  0  0  0  0  0  0  0  0
    1.0386    3.2877   -3.8580 C   0  0  0  0  0  0  0  0  0  0  0  0
    0.6936    3.3996   -2.5160 C   0  0  0  0  0  0  0  0  0  0  0  0
    1.5149    2.8093   -1.5866 C   0  0  0  0  0  0  0  0  0  0  0  0
    2.6801    2.1096   -1.9560 C   0  0  0  0  0  0  0  0  0  0  0  0
    3.0259    2.0078   -3.2919 C   0  0  0  0  0  0  0  0  0  0  0  0
    3.4995   -2.0613    3.5072 F   0  0  0  0  0  0  0  0  0  0  0  0
    3.4891    7.5025   -7.5381 H   0  0  0  0  0  0  0  0  0  0  0  0
    2.6494    7.0960   -9.0502 H   0  0  0  0  0  0  0  0  0  0  0  0
    1.7249    7.4272   -7.5808 H   0  0  0  0  0  0  0  0  0  0  0  0
    2.7150    5.3631   -6.5301 H   0  0  0  0  0  0  0  0  0  0  0  0
    4.9812    4.9477   -6.5182 H   0  0  0  0  0  0  0  0  0  0  0  0
    5.7419    4.4277   -8.0464 H   0  0  0  0  0  0  0  0  0  0  0  0
    5.3456    6.1422   -7.7933 H   0  0  0  0  0  0  0  0  0  0  0  0
   -0.2750    4.9555  -10.9026 H   0  0  0  0  0  0  0  0  0  0  0  0
   -1.6472    3.2166   -9.7286 H   0  0  0  0  0  0  0  0  0  0  0  0
   -0.9340    2.5078   -7.4491 H   0  0  0  0  0  0  0  0  0  0  0  0
   -1.2367    4.5721   -5.9290 H   0  0  0  0  0  0  0  0  0  0  0  0
   -1.3823    4.3708   -4.1734 H   0  0  0  0  0  0  0  0  0  0  0  0
    0.2943    6.2158   -3.8511 H   0  0  0  0  0  0  0  0  0  0  0  0
    0.3831    6.4245   -5.6031 H   0  0  0  0  0  0  0  0  0  0  0  0
   -1.1244    6.7733   -4.7488 H   0  0  0  0  0  0  0  0  0  0  0  0
    3.3556    2.6874   -7.4894 H   0  0  0  0  0  0  0  0  0  0  0  0
    4.2659    2.0956   -6.0945 H   0  0  0  0  0  0  0  0  0  0  0  0
    4.9840    0.4071   -7.9041 H   0  0  0  0  0  0  0  0  0  0  0  0
    3.8021   -0.7537   -8.5098 H   0  0  0  0  0  0  0  0  0  0  0  0
    3.7380    0.9292   -9.0415 H   0  0  0  0  0  0  0  0  0  0  0  0
    0.8852    0.6234   -6.6390 H   0  0  0  0  0  0  0  0  0  0  0  0
    1.3321    1.1346   -8.2709 H   0  0  0  0  0  0  0  0  0  0  0  0
    1.3982   -0.5732   -7.8300 H   0  0  0  0  0  0  0  0  0  0  0  0
    2.6918   -0.0894   -4.9916 H   0  0  0  0  0  0  0  0  0  0  0  0
    3.0329   -1.3779   -6.1615 H   0  0  0  0  0  0  0  0  0  0  0  0
    6.5819    0.1666   -3.5171 H   0  0  0  0  0  0  0  0  0  0  0  0
    6.4128   -2.3593   -2.7556 H   0  0  0  0  0  0  0  0  0  0  0  0
    6.2887   -1.0697   -1.3290 H   0  0  0  0  0  0  0  0  0  0  0  0
    7.6174   -1.5317    1.2002 H   0  0  0  0  0  0  0  0  0  0  0  0
    7.6626   -3.6095    2.0017 H   0  0  0  0  0  0  0  0  0  0  0  0
    6.0353   -5.6439    0.4177 H   0  0  0  0  0  0  0  0  0  0  0  0
    5.5823   -5.9742    2.8420 H   0  0  0  0  0  0  0  0  0  0  0  0
    6.6721   -7.2294    2.2574 H   0  0  0  0  0  0  0  0  0  0  0  0
    7.3088   -5.8735    3.1905 H   0  0  0  0  0  0  0  0  0  0  0  0
    8.9677   -5.5057    1.2317 H   0  0  0  0  0  0  0  0  0  0  0  0
    8.2017   -6.8066    0.3167 H   0  0  0  0  0  0  0  0  0  0  0  0
    8.3197   -5.1925   -0.3828 H   0  0  0  0  0  0  0  0  0  0  0  0
    4.4186   -4.0431    4.9514 H   0  0  0  0  0  0  0  0  0  0  0  0
    5.6941   -3.0973    5.7406 H   0  0  0  0  0  0  0  0  0  0  0  0
    2.6751   -2.5965    5.8964 H   0  0  0  0  0  0  0  0  0  0  0  0
    3.7128   -3.1805    7.2265 H   0  0  0  0  0  0  0  0  0  0  0  0
    6.4169    2.2566    6.8908 H   0  0  0  0  0  0  0  0  0  0  0  0
    5.8206    3.9259    6.7184 H   0  0  0  0  0  0  0  0  0  0  0  0
    7.5126    3.6377    7.0965 H   0  0  0  0  0  0  0  0  0  0  0  0
    7.1897    2.9309   10.5019 H   0  0  0  0  0  0  0  0  0  0  0  0
    7.1907    1.5843    9.3364 H   0  0  0  0  0  0  0  0  0  0  0  0
    8.2275    3.0031    9.0854 H   0  0  0  0  0  0  0  0  0  0  0  0
    5.1741    2.4028   11.1461 H   0  0  0  0  0  0  0  0  0  0  0  0
    5.0104    4.1520   10.8911 H   0  0  0  0  0  0  0  0  0  0  0  0
    3.5935    3.0928   10.8208 H   0  0  0  0  0  0  0  0  0  0  0  0
    2.8608    3.7816    8.7804 H   0  0  0  0  0  0  0  0  0  0  0  0
    4.1547    4.9474    8.4616 H   0  0  0  0  0  0  0  0  0  0  0  0
    3.7794    3.6726    7.2882 H   0  0  0  0  0  0  0  0  0  0  0  0
    3.0032   -0.2177    5.1765 H   0  0  0  0  0  0  0  0  0  0  0  0
    4.2234    0.7420    6.0462 H   0  0  0  0  0  0  0  0  0  0  0  0
    6.0384   -0.6392    5.0309 H   0  0  0  0  0  0  0  0  0  0  0  0
    5.0082    0.0268    3.7553 H   0  0  0  0  0  0  0  0  0  0  0  0
    3.6661   -4.1712    2.3764 H   0  0  0  0  0  0  0  0  0  0  0  0
    3.8447   -2.7927    1.2708 H   0  0  0  0  0  0  0  0  0  0  0  0
    4.4354   -4.3794    0.7951 H   0  0  0  0  0  0  0  0  0  0  0  0
    7.6315    0.6432    0.7442 H   0  0  0  0  0  0  0  0  0  0  0  0
    7.5206    1.3018   -0.8839 H   0  0  0  0  0  0  0  0  0  0  0  0
    5.6223    1.9948    0.5766 H   0  0  0  0  0  0  0  0  0  0  0  0
    5.2961    1.9583   -1.8412 H   0  0  0  0  0  0  0  0  0  0  0  0
    4.8145    0.2308   -1.7921 H   0  0  0  0  0  0  0  0  0  0  0  0
    1.8344    0.8902    0.1839 H   0  0  0  0  0  0  0  0  0  0  0  0
    2.8132   -0.3825   -0.5895 H   0  0  0  0  0  0  0  0  0  0  0  0
    3.6745    1.3988    1.7498 H   0  0  0  0  0  0  0  0  0  0  0  0
    3.2643   -0.3422    1.8408 H   0  0  0  0  0  0  0  0  0  0  0  0
   10.2363   -1.2287   -3.4046 H   0  0  0  0  0  0  0  0  0  0  0  0
    9.3341   -2.4270   -4.3799 H   0  0  0  0  0  0  0  0  0  0  0  0
    8.9375    0.6055   -4.3571 H   0  0  0  0  0  0  0  0  0  0  0  0
    9.5550   -0.3530   -5.7078 H   0  0  0  0  0  0  0  0  0  0  0  0
    7.3772   -1.4816   -5.9572 H   0  0  0  0  0  0  0  0  0  0  0  0
    7.1025    0.2700   -5.9527 H   0  0  0  0  0  0  0  0  0  0  0  0
   -0.1853    3.9425   -2.2019 H   0  0  0  0  0  0  0  0  0  0  0  0
    1.2805    2.9027   -0.5373 H   0  0  0  0  0  0  0  0  0  0  0  0
    3.9204    1.4909   -3.5997 H   0  0  0  0  0  0  0  0  0  0  0  0
  1  2  1  0  0  0  0
  2  3  1  0  0  0  0
  3  4  1  0  0  0  0
  2  5  1  0  0  0  0
  5  6  4  0  0  0  0
  6  7  4  0  0  0  0
  7  8  4  0  0  0  0
  8  9  4  0  0  0  0
  5 10  4  0  0  0  0
  9 10  4  0  0  0  0
 10 11  1  0  0  0  0
 11 12  1  0  0  0  0
 12 13  1  0  0  0  0
 13 14  1  0  0  0  0
 11 15  2  0  0  0  0
 15 16  1  0  0  0  0
 16 17  1  0  0  0  0
 17 18  1  0  0  0  0
 17 19  1  0  0  0  0
 17 20  1  0  0  0  0
 20 21  1  0  0  0  0
 21 22  1  0  0  0  0
 22 23  1  0  0  0  0
 23 24  1  0  0  0  0
 24 25  1  0  0  0  0
 25 26  4  0  0  0  0
 26 27  1  0  0  0  0
 27 28  1  0  0  0  0
 28 29  4  0  0  0  0
 29 30  1  0  0  0  0
 30 31  1  0  0  0  0
 31 32  1  0  0  0  0
 31 33  1  0  0  0  0
 30 34  1  0  0  0  0
 34 35  4  0  0  0  0
 35 36  1  0  0  0  0
 36 37  1  0  0  0  0
 37 38  1  0  0  0  0
 38 39  1  0  0  0  0
 39 40  4  0  0  0  0
 40 41  1  0  0  0  0
 41 42  3  0  0  0  0
 42 43  1  0  0  0  0
 43 44  1  0  0  0  0
 44 45  1  0  0  0  0
 44 46  1  0  0  0  0
 43 47  1  0  0  0  0
 43 48  1  0  0  0  0
 40 49  2  0  0  0  0
 39 50  1  0  0  0  0
 36 51  1  0  0  0  0
 50 51  1  0  0  0  0
 35 52  2  0  0  0  0
 34 53  1  0  0  0  0
 29 54  2  0  0  0  0
 27 55  1  0  0  0  0
 55 56  1  0  0  0  0
 56 57  1  0  0  0  0
 57 58  1  0  0  0  0
 58 59  1  0  0  0  0
 59 60  1  0  0  0  0
 56 61  1  0  0  0  0
 60 61  1  0  0  0  0
 26 62  2  0  0  0  0
 25 63  1  0  0  0  0
 63 64  1  0  0  0  0
 23 65  1  0  0  0  0
 64 65  1  0  0  0  0
 22 66  2  0  0  0  0
 15 67  4  0  0  0  0
 12 68  1  0  0  0  0
 67 68  4  0  0  0  0
 68 69  4  0  0  0  0
 69 70  2  0  0  0  0
 58 71  1  0  0  0  0
 70 71  4  0  0  0  0
 67 72  4  0  0  0  0
 71 72  4  0  0  0  0
 36 73  1  0  0  0  0
  1 74  1  0  0  0  0
  1 75  1  0  0  0  0
  1 76  1  0  0  0  0
  2 77  1  0  0  0  0
  4 78  1  0  0  0  0
  4 79  1  0  0  0  0
  4 80  1  0  0  0  0
  7 81  1  0  0  0  0
  8 82  1  0  0  0  0
  9 83  1  0  0  0  0
 13 84  1  0  0  0  0
 13 85  1  0  0  0  0
 14 86  1  0  0  0  0
 14 87  1  0  0  0  0
 14 88  1  0  0  0  0
 16 89  1  0  0  0  0
 16 90  1  0  0  0  0
 18 91  1  0  0  0  0
 18 92  1  0  0  0  0
 18 93  1  0  0  0  0
 19 94  1  0  0  0  0
 19 95  1  0  0  0  0
 19 96  1  0  0  0  0
 20 97  1  0  0  0  0
 20 98  1  0  0  0  0
 23 99  1  0  0  0  0
 24100  1  0  0  0  0
 27101  1  0  0  0  0
 28102  1  0  0  0  0
 30103  1  0  0  0  0
 31104  1  0  0  0  0
 32105  1  0  0  0  0
 32106  1  0  0  0  0
 32107  1  0  0  0  0
 33108  1  0  0  0  0
 33109  1  0  0  0  0
 33110  1  0  0  0  0
 37111  1  0  0  0  0
 37112  1  0  0  0  0
 38113  1  0  0  0  0
 38114  1  0  0  0  0
 45115  1  0  0  0  0
 45116  1  0  0  0  0
 45117  1  0  0  0  0
 46118  1  0  0  0  0
 46119  1  0  0  0  0
 46120  1  0  0  0  0
 47121  1  0  0  0  0
 47122  1  0  0  0  0
 47123  1  0  0  0  0
 48124  1  0  0  0  0
 48125  1  0  0  0  0
 48126  1  0  0  0  0
 50127  1  0  0  0  0
 50128  1  0  0  0  0
 51129  1  0  0  0  0
 51130  1  0  0  0  0
 53131  1  0  0  0  0
 53132  1  0  0  0  0
 53133  1  0  0  0  0
 55134  1  0  0  0  0
 55135  1  0  0  0  0
 56136  1  0  0  0  0
 57137  1  0  0  0  0
 57138  1  0  0  0  0
 59139  1  0  0  0  0
 59140  1  0  0  0  0
 60141  1  0  0  0  0
 60142  1  0  0  0  0
 63143  1  0  0  0  0
 63144  1  0  0  0  0
 64145  1  0  0  0  0
 64146  1  0  0  0  0
 65147  1  0  0  0  0
 65148  1  0  0  0  0
 69149  1  0  0  0  0
 70150  1  0  0  0  0
 72151  1  0  0  0  0
M  END
$$$$
