 energy: -221.290135666373 gnorm: 0.000317857865 xtb: 6.7.1 (edcfbbe)
          08232520263D

151157  0     0  0            999 V2000
   -2.1959    3.9454   -2.2606 C   0  0  0  0  0  0  0  0  0  0  0  0
   -1.2852    2.8739   -2.8732 C   0  0  0  0  0  0  0  0  0  0  0  0
   -1.3729    1.6402   -2.1788 O   0  0  0  0  0  0  0  0  0  0  0  0
   -2.3595    0.7755   -2.6737 C   0  0  0  0  0  0  0  0  0  0  0  0
    0.1419    3.3752   -2.9121 C   0  0  0  0  0  0  0  0  0  0  0  0
    0.5107    3.7830   -4.1205 N   0  0  0  0  0  0  0  0  0  0  0  0
    1.6955    4.3345   -4.2984 C   0  0  0  0  0  0  0  0  0  0  0  0
    2.5944    4.5301   -3.2630 C   0  0  0  0  0  0  0  0  0  0  0  0
    2.2245    4.0944   -2.0049 C   0  0  0  0  0  0  0  0  0  0  0  0
    0.9851    3.4852   -1.8003 C   0  0  0  0  0  0  0  0  0  0  0  0
    0.6604    3.0381   -0.4372 C   0  0  0  0  0  0  0  0  0  0  0  0
    0.3799    3.9766    0.5316 N   0  0  0  0  0  0  0  0  0  0  0  0
    0.2325    5.3952    0.3380 C   0  0  0  0  0  0  0  0  0  0  0  0
    1.4187    6.1779    0.9007 C   0  0  0  0  0  0  0  0  0  0  0  0
    0.7088    1.7793    0.1189 C   0  0  0  0  0  0  0  0  0  0  0  0
    0.9389    0.4568   -0.5429 C   0  0  0  0  0  0  0  0  0  0  0  0
    2.4033   -0.0273   -0.6430 C   0  0  0  0  0  0  0  0  0  0  0  0
    2.4162   -1.3787   -1.3619 C   0  0  0  0  0  0  0  0  0  0  0  0
    3.2374    0.9740   -1.4434 C   0  0  0  0  0  0  0  0  0  0  0  0
    3.0612   -0.1545    0.7474 C   0  0  0  0  0  0  0  0  0  0  0  0
    2.8563   -1.4123    1.4075 O   0  0  0  0  0  0  0  0  0  0  0  0
    3.8533   -2.2906    1.3368 C   0  0  0  0  0  0  0  0  0  0  0  0
    3.6142   -3.4948    2.2415 C   0  0  0  0  0  0  0  0  0  0  0  0
    2.3376   -4.1553    2.0067 N   0  0  0  0  0  0  0  0  0  0  0  0
    2.1059   -5.0909    3.0228 N   0  0  0  0  0  0  0  0  0  0  0  0
    1.5351   -4.8393    4.2230 C   0  0  0  0  0  0  0  0  0  0  0  0
    0.9008   -3.4457    4.3935 C   0  0  0  0  0  0  0  0  0  0  0  0
   -0.5369   -3.5633    4.2553 N   0  0  0  0  0  0  0  0  0  0  0  0
   -1.1303   -3.4908    3.0567 C   0  0  0  0  0  0  0  0  0  0  0  0
   -2.6529   -3.6503    3.0801 C   0  0  0  0  0  0  0  0  0  0  0  0
   -3.0693   -5.0809    2.7025 C   0  0  0  0  0  0  0  0  0  0  0  0
   -4.5821   -5.2379    2.8497 C   0  0  0  0  0  0  0  0  0  0  0  0
   -2.3552   -6.0894    3.6021 C   0  0  0  0  0  0  0  0  0  0  0  0
   -3.2351   -2.6128    2.2259 N   0  0  0  0  0  0  0  0  0  0  0  0
   -3.4934   -1.4469    2.8445 C   0  0  0  0  0  0  0  0  0  0  0  0
   -3.9976   -0.2325    2.0445 C   0  0  0  0  0  0  0  0  0  0  0  0
   -4.6366    0.7743    3.0065 C   0  0  0  0  0  0  0  0  0  0  0  0
   -5.0448    2.0477    2.2676 C   0  0  0  0  0  0  0  0  0  0  0  0
   -3.9305    2.6016    1.5412 N   0  0  0  0  0  0  0  0  0  0  0  0
   -3.3967    3.8216    1.7561 C   0  0  0  0  0  0  0  0  0  0  0  0
   -3.8948    4.5241    2.9136 C   0  0  0  0  0  0  0  0  0  0  0  0
   -4.1264    5.2210    3.8669 C   0  0  0  0  0  0  0  0  0  0  0  0
   -4.4116    5.9761    5.0847 C   0  0  0  0  0  0  0  0  0  0  0  0
   -5.4995    6.9160    4.7951 N   0  0  0  0  0  0  0  0  0  0  0  0
   -5.9727    7.6828    5.9260 C   0  0  0  0  0  0  0  0  0  0  0  0
   -5.2461    7.7846    3.6639 C   0  0  0  0  0  0  0  0  0  0  0  0
   -3.0908    6.6370    5.5325 C   0  0  0  0  0  0  0  0  0  0  0  0
   -4.8633    4.9536    6.1417 C   0  0  0  0  0  0  0  0  0  0  0  0
   -2.5385    4.3163    1.0429 O   0  0  0  0  0  0  0  0  0  0  0  0
   -3.3471    1.6994    0.5792 C   0  0  0  0  0  0  0  0  0  0  0  0
   -2.8471    0.4432    1.2928 C   0  0  0  0  0  0  0  0  0  0  0  0
   -3.3236   -1.3107    4.0494 O   0  0  0  0  0  0  0  0  0  0  0  0
   -3.2193   -2.8504    0.7988 C   0  0  0  0  0  0  0  0  0  0  0  0
   -0.5027   -3.2982    2.0252 O   0  0  0  0  0  0  0  0  0  0  0  0
    1.2739   -2.8542    5.7511 C   0  0  0  0  0  0  0  0  0  0  0  0
    0.6992   -1.4498    5.9955 C   0  0  0  0  0  0  0  0  0  0  0  0
    0.5567   -0.6453    4.7017 C   0  0  0  0  0  0  0  0  0  0  0  0
    0.0232    0.6755    4.9675 N   0  0  0  0  0  0  0  0  0  0  0  0
   -1.2533    0.5520    5.6621 C   0  0  0  0  0  0  0  0  0  0  0  0
   -1.0730   -0.2915    6.9240 C   0  0  0  0  0  0  0  0  0  0  0  0
   -0.5596   -1.5708    6.6293 O   0  0  0  0  0  0  0  0  0  0  0  0
    1.4525   -5.6848    5.0950 O   0  0  0  0  0  0  0  0  0  0  0  0
    2.9966   -6.2258    2.8616 C   0  0  0  0  0  0  0  0  0  0  0  0
    4.4403   -5.7333    3.0034 C   0  0  0  0  0  0  0  0  0  0  0  0
    4.6946   -4.5652    2.0499 C   0  0  0  0  0  0  0  0  0  0  0  0
    4.8709   -2.1276    0.7165 O   0  0  0  0  0  0  0  0  0  0  0  0
    0.4144    1.9547    1.5033 C   0  0  0  0  0  0  0  0  0  0  0  0
    0.2007    3.3330    1.7215 C   0  0  0  0  0  0  0  0  0  0  0  0
   -0.1386    3.8036    2.9864 C   0  0  0  0  0  0  0  0  0  0  0  0
   -0.2195    2.8988    4.0203 C   0  0  0  0  0  0  0  0  0  0  0  0
    0.0218    1.5242    3.8329 C   0  0  0  0  0  0  0  0  0  0  0  0
    0.3146    1.0541    2.5640 C   0  0  0  0  0  0  0  0  0  0  0  0
   -4.9823   -0.6281    1.1349 F   0  0  0  0  0  0  0  0  0  0  0  0
   -1.9717    4.0847   -1.2063 H   0  0  0  0  0  0  0  0  0  0  0  0
   -2.0529    4.8860   -2.7860 H   0  0  0  0  0  0  0  0  0  0  0  0
   -3.2386    3.6507   -2.3575 H   0  0  0  0  0  0  0  0  0  0  0  0
   -1.5754    2.7217   -3.9240 H   0  0  0  0  0  0  0  0  0  0  0  0
   -2.3023   -0.1310   -2.0736 H   0  0  0  0  0  0  0  0  0  0  0  0
   -3.3648    1.2029   -2.5876 H   0  0  0  0  0  0  0  0  0  0  0  0
   -2.1766    0.5230   -3.7261 H   0  0  0  0  0  0  0  0  0  0  0  0
    1.9218    4.6365   -5.3126 H   0  0  0  0  0  0  0  0  0  0  0  0
    3.5493    5.0019   -3.4343 H   0  0  0  0  0  0  0  0  0  0  0  0
    2.8959    4.2192   -1.1669 H   0  0  0  0  0  0  0  0  0  0  0  0
    0.1325    5.5910   -0.7323 H   0  0  0  0  0  0  0  0  0  0  0  0
   -0.6916    5.7068    0.8324 H   0  0  0  0  0  0  0  0  0  0  0  0
    1.5624    5.9454    1.9528 H   0  0  0  0  0  0  0  0  0  0  0  0
    2.3338    5.9323    0.3670 H   0  0  0  0  0  0  0  0  0  0  0  0
    1.2374    7.2447    0.7996 H   0  0  0  0  0  0  0  0  0  0  0  0
    0.3749   -0.2977    0.0103 H   0  0  0  0  0  0  0  0  0  0  0  0
    0.5342    0.5048   -1.5539 H   0  0  0  0  0  0  0  0  0  0  0  0
    1.7944   -2.1026   -0.8389 H   0  0  0  0  0  0  0  0  0  0  0  0
    2.0325   -1.2623   -2.3726 H   0  0  0  0  0  0  0  0  0  0  0  0
    3.4293   -1.7704   -1.4205 H   0  0  0  0  0  0  0  0  0  0  0  0
    3.3515    1.8993   -0.8861 H   0  0  0  0  0  0  0  0  0  0  0  0
    4.2259    0.5678   -1.6472 H   0  0  0  0  0  0  0  0  0  0  0  0
    2.7530    1.1975   -2.3906 H   0  0  0  0  0  0  0  0  0  0  0  0
    4.1425   -0.0181    0.6451 H   0  0  0  0  0  0  0  0  0  0  0  0
    2.6593    0.6031    1.4229 H   0  0  0  0  0  0  0  0  0  0  0  0
    3.6785   -3.0963    3.2752 H   0  0  0  0  0  0  0  0  0  0  0  0
    1.5360   -3.5452    1.8598 H   0  0  0  0  0  0  0  0  0  0  0  0
    1.2545   -2.7846    3.5991 H   0  0  0  0  0  0  0  0  0  0  0  0
   -1.0702   -3.6431    5.1071 H   0  0  0  0  0  0  0  0  0  0  0  0
   -3.0111   -3.4402    4.0935 H   0  0  0  0  0  0  0  0  0  0  0  0
   -2.7721   -5.2807    1.6696 H   0  0  0  0  0  0  0  0  0  0  0  0
   -4.8668   -5.1383    3.8950 H   0  0  0  0  0  0  0  0  0  0  0  0
   -5.1216   -4.4846    2.2816 H   0  0  0  0  0  0  0  0  0  0  0  0
   -4.8932   -6.2202    2.5024 H   0  0  0  0  0  0  0  0  0  0  0  0
   -2.5725   -5.8949    4.6502 H   0  0  0  0  0  0  0  0  0  0  0  0
   -2.6968   -7.0945    3.3666 H   0  0  0  0  0  0  0  0  0  0  0  0
   -1.2778   -6.0582    3.4609 H   0  0  0  0  0  0  0  0  0  0  0  0
   -5.5107    0.3190    3.4738 H   0  0  0  0  0  0  0  0  0  0  0  0
   -3.9124    1.0063    3.7865 H   0  0  0  0  0  0  0  0  0  0  0  0
   -5.8405    1.8068    1.5505 H   0  0  0  0  0  0  0  0  0  0  0  0
   -5.4208    2.7890    2.9749 H   0  0  0  0  0  0  0  0  0  0  0  0
   -6.2452    7.0237    6.7456 H   0  0  0  0  0  0  0  0  0  0  0  0
   -5.2441    8.4246    6.2883 H   0  0  0  0  0  0  0  0  0  0  0  0
   -6.8686    8.2199    5.6136 H   0  0  0  0  0  0  0  0  0  0  0  0
   -6.1925    8.2310    3.3570 H   0  0  0  0  0  0  0  0  0  0  0  0
   -4.5428    8.6002    3.8917 H   0  0  0  0  0  0  0  0  0  0  0  0
   -4.8524    7.2018    2.8339 H   0  0  0  0  0  0  0  0  0  0  0  0
   -3.2392    7.1884    6.4581 H   0  0  0  0  0  0  0  0  0  0  0  0
   -2.3384    5.8704    5.6999 H   0  0  0  0  0  0  0  0  0  0  0  0
   -2.7233    7.3162    4.7669 H   0  0  0  0  0  0  0  0  0  0  0  0
   -4.8338    5.3825    7.1398 H   0  0  0  0  0  0  0  0  0  0  0  0
   -5.8744    4.6205    5.9221 H   0  0  0  0  0  0  0  0  0  0  0  0
   -4.1992    4.0924    6.1215 H   0  0  0  0  0  0  0  0  0  0  0  0
   -4.1038    1.4247   -0.1646 H   0  0  0  0  0  0  0  0  0  0  0  0
   -2.5133    2.1973    0.0838 H   0  0  0  0  0  0  0  0  0  0  0  0
   -2.0803    0.7186    2.0197 H   0  0  0  0  0  0  0  0  0  0  0  0
   -2.3945   -0.2269    0.5638 H   0  0  0  0  0  0  0  0  0  0  0  0
   -3.8772   -3.6836    0.5504 H   0  0  0  0  0  0  0  0  0  0  0  0
   -3.5644   -1.9842    0.2497 H   0  0  0  0  0  0  0  0  0  0  0  0
   -2.2000   -3.0915    0.4913 H   0  0  0  0  0  0  0  0  0  0  0  0
    0.9151   -3.5175    6.5401 H   0  0  0  0  0  0  0  0  0  0  0  0
    2.3624   -2.8124    5.8163 H   0  0  0  0  0  0  0  0  0  0  0  0
    1.3743   -0.8998    6.6749 H   0  0  0  0  0  0  0  0  0  0  0  0
    1.5390   -0.5349    4.2364 H   0  0  0  0  0  0  0  0  0  0  0  0
   -0.1238   -1.1895    4.0315 H   0  0  0  0  0  0  0  0  0  0  0  0
   -1.6189    1.5428    5.9331 H   0  0  0  0  0  0  0  0  0  0  0  0
   -1.9989    0.0507    5.0267 H   0  0  0  0  0  0  0  0  0  0  0  0
   -0.3935    0.2235    7.6212 H   0  0  0  0  0  0  0  0  0  0  0  0
   -2.0378   -0.4552    7.4060 H   0  0  0  0  0  0  0  0  0  0  0  0
    2.7506   -6.9630    3.6255 H   0  0  0  0  0  0  0  0  0  0  0  0
    2.8292   -6.6418    1.8663 H   0  0  0  0  0  0  0  0  0  0  0  0
    4.6000   -5.4085    4.0345 H   0  0  0  0  0  0  0  0  0  0  0  0
    5.1314   -6.5489    2.7924 H   0  0  0  0  0  0  0  0  0  0  0  0
    4.6464   -4.9100    1.0167 H   0  0  0  0  0  0  0  0  0  0  0  0
    5.6800   -4.1322    2.2197 H   0  0  0  0  0  0  0  0  0  0  0  0
   -0.3405    4.8492    3.1612 H   0  0  0  0  0  0  0  0  0  0  0  0
   -0.4547    3.2499    5.0139 H   0  0  0  0  0  0  0  0  0  0  0  0
    0.4703    0.0075    2.3610 H   0  0  0  0  0  0  0  0  0  0  0  0
  1  2  1  0  0  0  0
  2  3  1  0  0  0  0
  2  5  1  0  0  0  0
  3  4  1  0  0  0  0
  5  6  2  0  0  0  0
  5 10  1  0  0  0  0
  6  7  1  0  0  0  0
  7  8  2  0  0  0  0
  8  9  1  0  0  0  0
  9 10  2  0  0  0  0
 10 11  1  0  0  0  0
 11 12  1  0  0  0  0
 11 15  2  0  0  0  0
 12 13  1  0  0  0  0
 12 68  1  0  0  0  0
 13 14  1  0  0  0  0
 15 16  1  0  0  0  0
 15 67  1  0  0  0  0
 16 17  1  0  0  0  0
 17 18  1  0  0  0  0
 17 19  1  0  0  0  0
 17 20  1  0  0  0  0
 20 21  1  0  0  0  0
 21 22  1  0  0  0  0
 22 23  1  0  0  0  0
 22 66  2  0  0  0  0
 23 24  1  0  0  0  0
 23 65  1  0  0  0  0
 24 25  1  0  0  0  0
 25 26  1  0  0  0  0
 25 63  1  0  0  0  0
 26 27  1  0  0  0  0
 26 62  2  0  0  0  0
 27 28  1  0  0  0  0
 27 55  1  0  0  0  0
 28 29  1  0  0  0  0
 29 30  1  0  0  0  0
 29 54  2  0  0  0  0
 30 31  1  0  0  0  0
 30 34  1  0  0  0  0
 31 32  1  0  0  0  0
 31 33  1  0  0  0  0
 34 35  1  0  0  0  0
 34 53  1  0  0  0  0
 35 36  1  0  0  0  0
 35 52  2  0  0  0  0
 36 37  1  0  0  0  0
 36 51  1  0  0  0  0
 36 73  1  0  0  0  0
 37 38  1  0  0  0  0
 38 39  1  0  0  0  0
 39 40  1  0  0  0  0
 39 50  1  0  0  0  0
 40 41  1  0  0  0  0
 40 49  2  0  0  0  0
 42 43  1  0  0  0  0
 43 44  1  0  0  0  0
 43 47  1  0  0  0  0
 43 48  1  0  0  0  0
 44 45  1  0  0  0  0
 44 46  1  0  0  0  0
 50 51  1  0  0  0  0
 55 56  1  0  0  0  0
 56 57  1  0  0  0  0
 56 61  1  0  0  0  0
 57 58  1  0  0  0  0
 58 59  1  0  0  0  0
 58 71  1  0  0  0  0
 59 60  1  0  0  0  0
 60 61  1  0  0  0  0
 63 64  1  0  0  0  0
 64 65  1  0  0  0  0
 67 68  2  0  0  0  0
 67 72  1  0  0  0  0
 68 69  1  0  0  0  0
 69 70  2  0  0  0  0
 70 71  1  0  0  0  0
 71 72  2  0  0  0  0
 41 42  3  0  0  0  0
  1 74  1  0  0  0  0
  1 75  1  0  0  0  0
  1 76  1  0  0  0  0
  2 77  1  0  0  0  0
  4 78  1  0  0  0  0
  4 79  1  0  0  0  0
  4 80  1  0  0  0  0
  7 81  1  0  0  0  0
  8 82  1  0  0  0  0
  9 83  1  0  0  0  0
 13 84  1  0  0  0  0
 13 85  1  0  0  0  0
 14 86  1  0  0  0  0
 14 87  1  0  0  0  0
 14 88  1  0  0  0  0
 16 89  1  0  0  0  0
 16 90  1  0  0  0  0
 18 91  1  0  0  0  0
 18 92  1  0  0  0  0
 18 93  1  0  0  0  0
 19 94  1  0  0  0  0
 19 95  1  0  0  0  0
 19 96  1  0  0  0  0
 20 97  1  0  0  0  0
 20 98  1  0  0  0  0
 23 99  1  0  0  0  0
 24100  1  0  0  0  0
 27101  1  0  0  0  0
 28102  1  0  0  0  0
 30103  1  0  0  0  0
 31104  1  0  0  0  0
 32105  1  0  0  0  0
 32106  1  0  0  0  0
 32107  1  0  0  0  0
 33108  1  0  0  0  0
 33109  1  0  0  0  0
 33110  1  0  0  0  0
 37111  1  0  0  0  0
 37112  1  0  0  0  0
 38113  1  0  0  0  0
 38114  1  0  0  0  0
 45115  1  0  0  0  0
 45116  1  0  0  0  0
 45117  1  0  0  0  0
 46118  1  0  0  0  0
 46119  1  0  0  0  0
 46120  1  0  0  0  0
 47121  1  0  0  0  0
 47122  1  0  0  0  0
 47123  1  0  0  0  0
 48124  1  0  0  0  0
 48125  1  0  0  0  0
 48126  1  0  0  0  0
 50127  1  0  0  0  0
 50128  1  0  0  0  0
 51129  1  0  0  0  0
 51130  1  0  0  0  0
 53131  1  0  0  0  0
 53132  1  0  0  0  0
 53133  1  0  0  0  0
 55134  1  0  0  0  0
 55135  1  0  0  0  0
 56136  1  0  0  0  0
 57137  1  0  0  0  0
 57138  1  0  0  0  0
 59139  1  0  0  0  0
 59140  1  0  0  0  0
 60141  1  0  0  0  0
 60142  1  0  0  0  0
 63143  1  0  0  0  0
 63144  1  0  0  0  0
 64145  1  0  0  0  0
 64146  1  0  0  0  0
 65147  1  0  0  0  0
 65148  1  0  0  0  0
 69149  1  0  0  0  0
 70150  1  0  0  0  0
 72151  1  0  0  0  0
M  END
$$$$
