 energy: -221.285873011087 gnorm: 0.000271660405 xtb: 6.7.1 (edcfbbe)
          08232520323D

151157  0     0  0            999 V2000
    4.4104    2.2914   -0.1706 C   0  0  0  0  0  0  0  0  0  0  0  0
    4.5476    0.8230   -0.5862 C   0  0  0  0  0  0  0  0  0  0  0  0
    3.3890    0.3627   -1.2622 O   0  0  0  0  0  0  0  0  0  0  0  0
    3.4171    0.5600   -2.6498 C   0  0  0  0  0  0  0  0  0  0  0  0
    4.8700   -0.0530    0.6091 C   0  0  0  0  0  0  0  0  0  0  0  0
    6.1568   -0.3797    0.6480 N   0  0  0  0  0  0  0  0  0  0  0  0
    6.6331   -1.0953    1.6478 C   0  0  0  0  0  0  0  0  0  0  0  0
    5.8396   -1.5480    2.6882 C   0  0  0  0  0  0  0  0  0  0  0  0
    4.4971   -1.2229    2.6537 C   0  0  0  0  0  0  0  0  0  0  0  0
    3.9733   -0.4596    1.6075 C   0  0  0  0  0  0  0  0  0  0  0  0
    2.5397   -0.1358    1.6500 C   0  0  0  0  0  0  0  0  0  0  0  0
    2.0633    0.7451    2.6037 N   0  0  0  0  0  0  0  0  0  0  0  0
    2.8090    1.3231    3.6949 C   0  0  0  0  0  0  0  0  0  0  0  0
    3.7725    2.4296    3.2803 C   0  0  0  0  0  0  0  0  0  0  0  0
    1.4953   -0.6549    0.9183 C   0  0  0  0  0  0  0  0  0  0  0  0
    1.5091   -1.6723   -0.1788 C   0  0  0  0  0  0  0  0  0  0  0  0
    1.3967   -3.1523    0.2559 C   0  0  0  0  0  0  0  0  0  0  0  0
    2.5504   -3.5145    1.1923 C   0  0  0  0  0  0  0  0  0  0  0  0
    1.4742   -4.0278   -0.9974 C   0  0  0  0  0  0  0  0  0  0  0  0
    0.0877   -3.4339    1.0240 C   0  0  0  0  0  0  0  0  0  0  0  0
   -1.0443   -3.7681    0.2072 O   0  0  0  0  0  0  0  0  0  0  0  0
   -1.3358   -5.0619    0.0957 C   0  0  0  0  0  0  0  0  0  0  0  0
   -2.6748   -5.2859   -0.5983 C   0  0  0  0  0  0  0  0  0  0  0  0
   -2.7914   -4.6135   -1.8844 N   0  0  0  0  0  0  0  0  0  0  0  0
   -4.1220   -4.6722   -2.3167 N   0  0  0  0  0  0  0  0  0  0  0  0
   -5.1059   -3.8051   -1.9848 C   0  0  0  0  0  0  0  0  0  0  0  0
   -4.6608   -2.5261   -1.2504 C   0  0  0  0  0  0  0  0  0  0  0  0
   -4.6378   -1.4281   -2.1959 N   0  0  0  0  0  0  0  0  0  0  0  0
   -3.5557   -1.1785   -2.9436 C   0  0  0  0  0  0  0  0  0  0  0  0
   -3.6925    0.0051   -3.9045 C   0  0  0  0  0  0  0  0  0  0  0  0
   -4.0117   -0.4665   -5.3321 C   0  0  0  0  0  0  0  0  0  0  0  0
   -5.2535   -1.3574   -5.3239 C   0  0  0  0  0  0  0  0  0  0  0  0
   -4.2472    0.7416   -6.2374 C   0  0  0  0  0  0  0  0  0  0  0  0
   -2.4777    0.8156   -3.8036 N   0  0  0  0  0  0  0  0  0  0  0  0
   -2.5173    1.7916   -2.8798 C   0  0  0  0  0  0  0  0  0  0  0  0
   -1.2634    2.6295   -2.5783 C   0  0  0  0  0  0  0  0  0  0  0  0
   -1.6763    3.9340   -1.8897 C   0  0  0  0  0  0  0  0  0  0  0  0
   -0.4437    4.7262   -1.4563 C   0  0  0  0  0  0  0  0  0  0  0  0
    0.4211    3.9183   -0.6346 N   0  0  0  0  0  0  0  0  0  0  0  0
    0.7259    4.1744    0.6554 C   0  0  0  0  0  0  0  0  0  0  0  0
    0.0244    5.2879    1.2465 C   0  0  0  0  0  0  0  0  0  0  0  0
   -0.5059    6.1461    1.9025 C   0  0  0  0  0  0  0  0  0  0  0  0
   -1.2446    7.1772    2.6275 C   0  0  0  0  0  0  0  0  0  0  0  0
   -0.2897    8.2058    3.0516 N   0  0  0  0  0  0  0  0  0  0  0  0
   -0.8682    9.3624    3.6981 C   0  0  0  0  0  0  0  0  0  0  0  0
    0.8256    7.6967    3.8232 C   0  0  0  0  0  0  0  0  0  0  0  0
   -1.9916    6.4767    3.7827 C   0  0  0  0  0  0  0  0  0  0  0  0
   -2.2628    7.7737    1.6408 C   0  0  0  0  0  0  0  0  0  0  0  0
    1.5346    3.5224    1.2952 O   0  0  0  0  0  0  0  0  0  0  0  0
    0.8835    2.7116   -1.2752 C   0  0  0  0  0  0  0  0  0  0  0  0
   -0.3134    1.8465   -1.6666 C   0  0  0  0  0  0  0  0  0  0  0  0
   -3.5311    2.0242   -2.2337 O   0  0  0  0  0  0  0  0  0  0  0  0
   -1.3095    0.3330   -4.5082 C   0  0  0  0  0  0  0  0  0  0  0  0
   -2.5307   -1.8395   -2.8522 O   0  0  0  0  0  0  0  0  0  0  0  0
   -5.5968   -2.2199   -0.0839 C   0  0  0  0  0  0  0  0  0  0  0  0
   -5.2036   -0.9604    0.7036 C   0  0  0  0  0  0  0  0  0  0  0  0
   -3.6897   -0.7377    0.7333 C   0  0  0  0  0  0  0  0  0  0  0  0
   -3.3642    0.4414    1.5094 N   0  0  0  0  0  0  0  0  0  0  0  0
   -4.0486    1.5970    0.9428 C   0  0  0  0  0  0  0  0  0  0  0  0
   -5.5511    1.3207    0.8786 C   0  0  0  0  0  0  0  0  0  0  0  0
   -5.8408    0.1637    0.1268 O   0  0  0  0  0  0  0  0  0  0  0  0
   -6.2647   -3.9762   -2.3163 O   0  0  0  0  0  0  0  0  0  0  0  0
   -4.4477   -6.0261   -2.7262 C   0  0  0  0  0  0  0  0  0  0  0  0
   -4.3074   -6.9493   -1.5114 C   0  0  0  0  0  0  0  0  0  0  0  0
   -2.9307   -6.7728   -0.8692 C   0  0  0  0  0  0  0  0  0  0  0  0
   -0.6848   -5.9563    0.5680 O   0  0  0  0  0  0  0  0  0  0  0  0
    0.3185   -0.0203    1.4131 C   0  0  0  0  0  0  0  0  0  0  0  0
    0.7096    0.8555    2.4489 C   0  0  0  0  0  0  0  0  0  0  0  0
   -0.2396    1.6357    3.1028 C   0  0  0  0  0  0  0  0  0  0  0  0
   -1.5613    1.5002    2.7437 C   0  0  0  0  0  0  0  0  0  0  0  0
   -1.9750    0.6053    1.7395 C   0  0  0  0  0  0  0  0  0  0  0  0
   -1.0254   -0.1358    1.0588 C   0  0  0  0  0  0  0  0  0  0  0  0
   -0.6036    2.9736   -3.7605 F   0  0  0  0  0  0  0  0  0  0  0  0
    5.3004    2.6049    0.3679 H   0  0  0  0  0  0  0  0  0  0  0  0
    4.3046    2.9179   -1.0538 H   0  0  0  0  0  0  0  0  0  0  0  0
    3.5370    2.4273    0.4600 H   0  0  0  0  0  0  0  0  0  0  0  0
    5.4178    0.7273   -1.2542 H   0  0  0  0  0  0  0  0  0  0  0  0
    3.4735    1.6213   -2.9167 H   0  0  0  0  0  0  0  0  0  0  0  0
    4.2670    0.0393   -3.1095 H   0  0  0  0  0  0  0  0  0  0  0  0
    2.4896    0.1419   -3.0375 H   0  0  0  0  0  0  0  0  0  0  0  0
    7.6923   -1.3124    1.6031 H   0  0  0  0  0  0  0  0  0  0  0  0
    6.2529   -2.1381    3.4912 H   0  0  0  0  0  0  0  0  0  0  0  0
    3.8381   -1.5720    3.4369 H   0  0  0  0  0  0  0  0  0  0  0  0
    2.0768    1.7296    4.3950 H   0  0  0  0  0  0  0  0  0  0  0  0
    3.3650    0.5327    4.2128 H   0  0  0  0  0  0  0  0  0  0  0  0
    4.1820    2.9055    4.1681 H   0  0  0  0  0  0  0  0  0  0  0  0
    4.5936    2.0251    2.6948 H   0  0  0  0  0  0  0  0  0  0  0  0
    3.2416    3.1712    2.6919 H   0  0  0  0  0  0  0  0  0  0  0  0
    0.6776   -1.4562   -0.8531 H   0  0  0  0  0  0  0  0  0  0  0  0
    2.4355   -1.5651   -0.7409 H   0  0  0  0  0  0  0  0  0  0  0  0
    2.4382   -3.0007    2.1429 H   0  0  0  0  0  0  0  0  0  0  0  0
    2.5672   -4.5864    1.3774 H   0  0  0  0  0  0  0  0  0  0  0  0
    3.5005   -3.2243    0.7510 H   0  0  0  0  0  0  0  0  0  0  0  0
    1.3665   -5.0783   -0.7365 H   0  0  0  0  0  0  0  0  0  0  0  0
    0.6899   -3.7639   -1.7042 H   0  0  0  0  0  0  0  0  0  0  0  0
    2.4367   -3.8906   -1.4845 H   0  0  0  0  0  0  0  0  0  0  0  0
    0.2491   -4.2745    1.7064 H   0  0  0  0  0  0  0  0  0  0  0  0
   -0.2100   -2.5524    1.5949 H   0  0  0  0  0  0  0  0  0  0  0  0
   -3.4340   -4.9141    0.1209 H   0  0  0  0  0  0  0  0  0  0  0  0
   -2.4134   -3.6699   -1.9378 H   0  0  0  0  0  0  0  0  0  0  0  0
   -3.6439   -2.6581   -0.8738 H   0  0  0  0  0  0  0  0  0  0  0  0
   -5.4479   -0.8281   -2.2162 H   0  0  0  0  0  0  0  0  0  0  0  0
   -4.5107    0.6451   -3.5579 H   0  0  0  0  0  0  0  0  0  0  0  0
   -3.1733   -1.0571   -5.7110 H   0  0  0  0  0  0  0  0  0  0  0  0
   -5.0912   -2.2637   -4.7459 H   0  0  0  0  0  0  0  0  0  0  0  0
   -6.1062   -0.8278   -4.9044 H   0  0  0  0  0  0  0  0  0  0  0  0
   -5.5023   -1.6471   -6.3419 H   0  0  0  0  0  0  0  0  0  0  0  0
   -5.1346    1.2820   -5.9145 H   0  0  0  0  0  0  0  0  0  0  0  0
   -3.4071    1.4307   -6.2137 H   0  0  0  0  0  0  0  0  0  0  0  0
   -4.3981    0.4176   -7.2643 H   0  0  0  0  0  0  0  0  0  0  0  0
   -2.2779    4.5277   -2.5792 H   0  0  0  0  0  0  0  0  0  0  0  0
   -2.2906    3.6844   -1.0252 H   0  0  0  0  0  0  0  0  0  0  0  0
    0.1154    5.0364   -2.3486 H   0  0  0  0  0  0  0  0  0  0  0  0
   -0.7431    5.6170   -0.9015 H   0  0  0  0  0  0  0  0  0  0  0  0
   -1.2935    9.1441    4.6901 H   0  0  0  0  0  0  0  0  0  0  0  0
   -0.0775   10.1013    3.8292 H   0  0  0  0  0  0  0  0  0  0  0  0
   -1.6384    9.8037    3.0714 H   0  0  0  0  0  0  0  0  0  0  0  0
    0.5598    7.4591    4.8647 H   0  0  0  0  0  0  0  0  0  0  0  0
    1.2245    6.8031    3.3481 H   0  0  0  0  0  0  0  0  0  0  0  0
    1.6058    8.4585    3.8392 H   0  0  0  0  0  0  0  0  0  0  0  0
   -2.5752    7.2005    4.3469 H   0  0  0  0  0  0  0  0  0  0  0  0
   -2.6649    5.7244    3.3795 H   0  0  0  0  0  0  0  0  0  0  0  0
   -1.2888    5.9850    4.4508 H   0  0  0  0  0  0  0  0  0  0  0  0
   -3.0171    8.3579    2.1611 H   0  0  0  0  0  0  0  0  0  0  0  0
   -1.7496    8.4068    0.9214 H   0  0  0  0  0  0  0  0  0  0  0  0
   -2.7652    6.9704    1.1062 H   0  0  0  0  0  0  0  0  0  0  0  0
    1.4574    2.9758   -2.1706 H   0  0  0  0  0  0  0  0  0  0  0  0
    1.5212    2.1624   -0.5822 H   0  0  0  0  0  0  0  0  0  0  0  0
   -0.8633    1.5611   -0.7674 H   0  0  0  0  0  0  0  0  0  0  0  0
    0.0430    0.9367   -2.1474 H   0  0  0  0  0  0  0  0  0  0  0  0
   -1.1622   -0.7201   -4.2629 H   0  0  0  0  0  0  0  0  0  0  0  0
   -1.4491    0.4378   -5.5850 H   0  0  0  0  0  0  0  0  0  0  0  0
   -0.4218    0.8878   -4.2342 H   0  0  0  0  0  0  0  0  0  0  0  0
   -6.6118   -2.0908   -0.4635 H   0  0  0  0  0  0  0  0  0  0  0  0
   -5.5955   -3.0782    0.5900 H   0  0  0  0  0  0  0  0  0  0  0  0
   -5.5606   -1.0623    1.7436 H   0  0  0  0  0  0  0  0  0  0  0  0
   -3.2030   -1.6014    1.1924 H   0  0  0  0  0  0  0  0  0  0  0  0
   -3.3413   -0.6104   -0.3019 H   0  0  0  0  0  0  0  0  0  0  0  0
   -3.8609    2.4722    1.5656 H   0  0  0  0  0  0  0  0  0  0  0  0
   -3.6994    1.7993   -0.0817 H   0  0  0  0  0  0  0  0  0  0  0  0
   -5.9498    1.2031    1.8984 H   0  0  0  0  0  0  0  0  0  0  0  0
   -6.0622    2.1435    0.3770 H   0  0  0  0  0  0  0  0  0  0  0  0
   -5.4667   -6.0295   -3.1125 H   0  0  0  0  0  0  0  0  0  0  0  0
   -3.7450   -6.3145   -3.5103 H   0  0  0  0  0  0  0  0  0  0  0  0
   -5.0860   -6.6964   -0.7875 H   0  0  0  0  0  0  0  0  0  0  0  0
   -4.4503   -7.9854   -1.8170 H   0  0  0  0  0  0  0  0  0  0  0  0
   -2.1545   -7.1291   -1.5470 H   0  0  0  0  0  0  0  0  0  0  0  0
   -2.8594   -7.3379    0.0596 H   0  0  0  0  0  0  0  0  0  0  0  0
    0.0397    2.3402    3.8714 H   0  0  0  0  0  0  0  0  0  0  0  0
   -2.3131    2.0807    3.2571 H   0  0  0  0  0  0  0  0  0  0  0  0
   -1.2895   -0.8079    0.2588 H   0  0  0  0  0  0  0  0  0  0  0  0
  1  2  1  0  0  0  0
  2  3  1  0  0  0  0
  2  5  1  0  0  0  0
  3  4  1  0  0  0  0
  5  6  2  0  0  0  0
  5 10  1  0  0  0  0
  6  7  1  0  0  0  0
  7  8  2  0  0  0  0
  8  9  1  0  0  0  0
  9 10  2  0  0  0  0
 10 11  1  0  0  0  0
 11 12  1  0  0  0  0
 11 15  2  0  0  0  0
 12 13  1  0  0  0  0
 12 68  1  0  0  0  0
 13 14  1  0  0  0  0
 15 16  1  0  0  0  0
 15 67  1  0  0  0  0
 16 17  1  0  0  0  0
 17 18  1  0  0  0  0
 17 19  1  0  0  0  0
 17 20  1  0  0  0  0
 20 21  1  0  0  0  0
 21 22  1  0  0  0  0
 22 23  1  0  0  0  0
 22 66  2  0  0  0  0
 23 24  1  0  0  0  0
 23 65  1  0  0  0  0
 24 25  1  0  0  0  0
 25 26  1  0  0  0  0
 25 63  1  0  0  0  0
 26 27  1  0  0  0  0
 26 62  2  0  0  0  0
 27 28  1  0  0  0  0
 27 55  1  0  0  0  0
 28 29  1  0  0  0  0
 29 30  1  0  0  0  0
 29 54  2  0  0  0  0
 30 31  1  0  0  0  0
 30 34  1  0  0  0  0
 31 32  1  0  0  0  0
 31 33  1  0  0  0  0
 34 35  1  0  0  0  0
 34 53  1  0  0  0  0
 35 36  1  0  0  0  0
 35 52  2  0  0  0  0
 36 37  1  0  0  0  0
 36 51  1  0  0  0  0
 36 73  1  0  0  0  0
 37 38  1  0  0  0  0
 38 39  1  0  0  0  0
 39 40  1  0  0  0  0
 39 50  1  0  0  0  0
 40 41  1  0  0  0  0
 40 49  2  0  0  0  0
 42 43  1  0  0  0  0
 43 44  1  0  0  0  0
 43 47  1  0  0  0  0
 43 48  1  0  0  0  0
 44 45  1  0  0  0  0
 44 46  1  0  0  0  0
 50 51  1  0  0  0  0
 55 56  1  0  0  0  0
 56 57  1  0  0  0  0
 56 61  1  0  0  0  0
 57 58  1  0  0  0  0
 58 59  1  0  0  0  0
 58 71  1  0  0  0  0
 59 60  1  0  0  0  0
 60 61  1  0  0  0  0
 63 64  1  0  0  0  0
 64 65  1  0  0  0  0
 67 68  2  0  0  0  0
 67 72  1  0  0  0  0
 68 69  1  0  0  0  0
 69 70  2  0  0  0  0
 70 71  1  0  0  0  0
 71 72  2  0  0  0  0
 41 42  3  0  0  0  0
  1 74  1  0  0  0  0
  1 75  1  0  0  0  0
  1 76  1  0  0  0  0
  2 77  1  0  0  0  0
  4 78  1  0  0  0  0
  4 79  1  0  0  0  0
  4 80  1  0  0  0  0
  7 81  1  0  0  0  0
  8 82  1  0  0  0  0
  9 83  1  0  0  0  0
 13 84  1  0  0  0  0
 13 85  1  0  0  0  0
 14 86  1  0  0  0  0
 14 87  1  0  0  0  0
 14 88  1  0  0  0  0
 16 89  1  0  0  0  0
 16 90  1  0  0  0  0
 18 91  1  0  0  0  0
 18 92  1  0  0  0  0
 18 93  1  0  0  0  0
 19 94  1  0  0  0  0
 19 95  1  0  0  0  0
 19 96  1  0  0  0  0
 20 97  1  0  0  0  0
 20 98  1  0  0  0  0
 23 99  1  0  0  0  0
 24100  1  0  0  0  0
 27101  1  0  0  0  0
 28102  1  0  0  0  0
 30103  1  0  0  0  0
 31104  1  0  0  0  0
 32105  1  0  0  0  0
 32106  1  0  0  0  0
 32107  1  0  0  0  0
 33108  1  0  0  0  0
 33109  1  0  0  0  0
 33110  1  0  0  0  0
 37111  1  0  0  0  0
 37112  1  0  0  0  0
 38113  1  0  0  0  0
 38114  1  0  0  0  0
 45115  1  0  0  0  0
 45116  1  0  0  0  0
 45117  1  0  0  0  0
 46118  1  0  0  0  0
 46119  1  0  0  0  0
 46120  1  0  0  0  0
 47121  1  0  0  0  0
 47122  1  0  0  0  0
 47123  1  0  0  0  0
 48124  1  0  0  0  0
 48125  1  0  0  0  0
 48126  1  0  0  0  0
 50127  1  0  0  0  0
 50128  1  0  0  0  0
 51129  1  0  0  0  0
 51130  1  0  0  0  0
 53131  1  0  0  0  0
 53132  1  0  0  0  0
 53133  1  0  0  0  0
 55134  1  0  0  0  0
 55135  1  0  0  0  0
 56136  1  0  0  0  0
 57137  1  0  0  0  0
 57138  1  0  0  0  0
 59139  1  0  0  0  0
 59140  1  0  0  0  0
 60141  1  0  0  0  0
 60142  1  0  0  0  0
 63143  1  0  0  0  0
 63144  1  0  0  0  0
 64145  1  0  0  0  0
 64146  1  0  0  0  0
 65147  1  0  0  0  0
 65148  1  0  0  0  0
 69149  1  0  0  0  0
 70150  1  0  0  0  0
 72151  1  0  0  0  0
M  END
$$$$
