 xtb: 6.7.1 (edcfbbe)
          08192500123D

151157  0     0  0            999 V2000
    0.3099   15.4026  -12.3019 C   0  0  0  0  0  0  0  0  0  0  0  0
    0.0903   14.8912  -10.8768 C   0  0  0  0  0  0  0  0  0  0  0  0
    0.0069   15.9362   -9.9184 O   0  0  0  0  0  0  0  0  0  0  0  0
   -1.1434   16.7358  -10.0235 C   0  0  0  0  0  0  0  0  0  0  0  0
    1.2560   14.0185  -10.4575 C   0  0  0  0  0  0  0  0  0  0  0  0
    2.4586   14.4605  -10.7871 N   0  0  0  0  0  0  0  0  0  0  0  0
    3.5228   13.7481  -10.4737 C   0  0  0  0  0  0  0  0  0  0  0  0
    3.4510   12.5268   -9.8208 C   0  0  0  0  0  0  0  0  0  0  0  0
    2.1990   12.0549   -9.4719 C   0  0  0  0  0  0  0  0  0  0  0  0
    1.0651   12.8082   -9.7763 C   0  0  0  0  0  0  0  0  0  0  0  0
   -0.2705   12.3140   -9.4227 C   0  0  0  0  0  0  0  0  0  0  0  0
   -0.8096   11.2449  -10.1088 N   0  0  0  0  0  0  0  0  0  0  0  0
   -0.1864   10.4971  -11.1679 C   0  0  0  0  0  0  0  0  0  0  0  0
    0.3122    9.1332  -10.6907 C   0  0  0  0  0  0  0  0  0  0  0  0
   -1.1663   12.7757   -8.4857 C   0  0  0  0  0  0  0  0  0  0  0  0
   -1.0307   13.8981   -7.5052 C   0  0  0  0  0  0  0  0  0  0  0  0
    0.0056   13.7342   -6.3614 C   0  0  0  0  0  0  0  0  0  0  0  0
   -0.4627   14.5648   -5.1625 C   0  0  0  0  0  0  0  0  0  0  0  0
    1.3759   14.2596   -6.8034 C   0  0  0  0  0  0  0  0  0  0  0  0
    0.1937   12.2672   -5.9348 C   0  0  0  0  0  0  0  0  0  0  0  0
   -0.7362   11.8471   -4.9307 O   0  0  0  0  0  0  0  0  0  0  0  0
   -1.3289   10.6739   -5.0779 C   0  0  0  0  0  0  0  0  0  0  0  0
   -2.1283   10.2952   -3.8327 C   0  0  0  0  0  0  0  0  0  0  0  0
   -2.3836    8.8634   -3.8986 N   0  0  0  0  0  0  0  0  0  0  0  0
   -3.2110    8.4140   -2.8646 N   0  0  0  0  0  0  0  0  0  0  0  0
   -4.4931    8.0200   -2.9541 C   0  0  0  0  0  0  0  0  0  0  0  0
   -5.1831    8.2299   -4.3048 C   0  0  0  0  0  0  0  0  0  0  0  0
   -6.2946    7.3207   -4.4190 N   0  0  0  0  0  0  0  0  0  0  0  0
   -6.4780    6.5585   -5.5118 C   0  0  0  0  0  0  0  0  0  0  0  0
   -7.7511    5.7056   -5.4778 C   0  0  0  0  0  0  0  0  0  0  0  0
   -7.4906    4.2838   -4.9499 C   0  0  0  0  0  0  0  0  0  0  0  0
   -8.7564    3.4381   -5.0767 C   0  0  0  0  0  0  0  0  0  0  0  0
   -7.0505    4.3458   -3.4877 C   0  0  0  0  0  0  0  0  0  0  0  0
   -8.3593    5.7504   -6.8064 N   0  0  0  0  0  0  0  0  0  0  0  0
   -9.3055    6.6939   -6.9801 C   0  0  0  0  0  0  0  0  0  0  0  0
   -9.9671    6.8698   -8.3600 C   0  0  0  0  0  0  0  0  0  0  0  0
  -10.5465    8.2825   -8.4806 C   0  0  0  0  0  0  0  0  0  0  0  0
  -11.3260    8.4295   -9.7891 C   0  0  0  0  0  0  0  0  0  0  0  0
  -12.3380    7.4091   -9.8913 N   0  0  0  0  0  0  0  0  0  0  0  0
  -13.6729    7.6328   -9.9416 C   0  0  0  0  0  0  0  0  0  0  0  0
  -14.0614    9.0231   -9.9784 C   0  0  0  0  0  0  0  0  0  0  0  0
  -14.5591   10.1183  -10.0077 C   0  0  0  0  0  0  0  0  0  0  0  0
  -15.1005   11.4724  -10.1035 C   0  0  0  0  0  0  0  0  0  0  0  0
  -14.9601   12.1069   -8.7877 N   0  0  0  0  0  0  0  0  0  0  0  0
  -15.5719   11.3626   -7.7055 C   0  0  0  0  0  0  0  0  0  0  0  0
  -15.3493   13.4982   -8.7255 C   0  0  0  0  0  0  0  0  0  0  0  0
  -16.5517   11.3613  -10.6135 C   0  0  0  0  0  0  0  0  0  0  0  0
  -14.2416   12.2150  -11.1416 C   0  0  0  0  0  0  0  0  0  0  0  0
  -14.5000    6.7388   -9.9759 O   0  0  0  0  0  0  0  0  0  0  0  0
  -11.8334    6.0593   -9.8311 C   0  0  0  0  0  0  0  0  0  0  0  0
  -11.0835    5.8299   -8.5180 C   0  0  0  0  0  0  0  0  0  0  0  0
   -9.7356    7.3652   -6.0522 O   0  0  0  0  0  0  0  0  0  0  0  0
   -7.7008    5.0409   -7.8836 C   0  0  0  0  0  0  0  0  0  0  0  0
   -5.7266    6.5890   -6.4666 O   0  0  0  0  0  0  0  0  0  0  0  0
   -5.6645    9.6953   -4.3615 C   0  0  0  0  0  0  0  0  0  0  0  0
   -5.2154   10.4242   -5.6330 C   0  0  0  0  0  0  0  0  0  0  0  0
   -6.0445   10.0413   -6.8718 C   0  0  0  0  0  0  0  0  0  0  0  0
   -5.8738   11.0532   -7.8957 N   0  0  0  0  0  0  0  0  0  0  0  0
   -6.4524   12.3129   -7.4576 C   0  0  0  0  0  0  0  0  0  0  0  0
   -6.3579   12.4919   -5.9275 C   0  0  0  0  0  0  0  0  0  0  0  0
   -5.2251   11.8316   -5.4073 O   0  0  0  0  0  0  0  0  0  0  0  0
   -5.1025    7.5464   -2.0082 O   0  0  0  0  0  0  0  0  0  0  0  0
   -2.5328    8.5340   -1.5886 C   0  0  0  0  0  0  0  0  0  0  0  0
   -2.1847   10.0067   -1.3542 C   0  0  0  0  0  0  0  0  0  0  0  0
   -1.3659   10.5491   -2.5274 C   0  0  0  0  0  0  0  0  0  0  0  0
   -1.2599    9.9706   -6.0526 O   0  0  0  0  0  0  0  0  0  0  0  0
   -2.3371   11.9680   -8.6240 C   0  0  0  0  0  0  0  0  0  0  0  0
   -2.0734   11.0212   -9.6387 C   0  0  0  0  0  0  0  0  0  0  0  0
   -3.0292   10.0873  -10.0234 C   0  0  0  0  0  0  0  0  0  0  0  0
   -4.2560   10.1324   -9.4052 C   0  0  0  0  0  0  0  0  0  0  0  0
   -4.5503   11.0886   -8.4192 C   0  0  0  0  0  0  0  0  0  0  0  0
   -3.5910   11.9959   -8.0145 C   0  0  0  0  0  0  0  0  0  0  0  0
   -9.0556    6.7153   -9.4000 F   0  0  0  0  0  0  0  0  0  0  0  0
    1.1943   16.0322  -12.3207 H   0  0  0  0  0  0  0  0  0  0  0  0
    0.4632   14.5577  -12.9682 H   0  0  0  0  0  0  0  0  0  0  0  0
   -0.5515   15.9669  -12.6494 H   0  0  0  0  0  0  0  0  0  0  0  0
   -0.8398   14.2980  -10.8363 H   0  0  0  0  0  0  0  0  0  0  0  0
   -2.0526   16.1212  -10.0451 H   0  0  0  0  0  0  0  0  0  0  0  0
   -1.1558   17.3682   -9.1367 H   0  0  0  0  0  0  0  0  0  0  0  0
   -1.1230   17.3740  -10.9126 H   0  0  0  0  0  0  0  0  0  0  0  0
    4.4726   14.1735  -10.7701 H   0  0  0  0  0  0  0  0  0  0  0  0
    4.3433   11.9653   -9.5917 H   0  0  0  0  0  0  0  0  0  0  0  0
    2.0896   11.1161   -8.9469 H   0  0  0  0  0  0  0  0  0  0  0  0
   -0.9208   10.3570  -11.9687 H   0  0  0  0  0  0  0  0  0  0  0  0
    0.6462   11.0839  -11.5665 H   0  0  0  0  0  0  0  0  0  0  0  0
    1.0912    9.2489   -9.9421 H   0  0  0  0  0  0  0  0  0  0  0  0
   -0.5035    8.5691  -10.2466 H   0  0  0  0  0  0  0  0  0  0  0  0
    0.7161    8.5712  -11.5287 H   0  0  0  0  0  0  0  0  0  0  0  0
   -0.7727   14.8140   -8.0387 H   0  0  0  0  0  0  0  0  0  0  0  0
   -2.0140   14.0399   -7.0537 H   0  0  0  0  0  0  0  0  0  0  0  0
    0.2490   14.4857   -4.3438 H   0  0  0  0  0  0  0  0  0  0  0  0
   -0.5473   15.6101   -5.4495 H   0  0  0  0  0  0  0  0  0  0  0  0
   -1.4296   14.2190   -4.8060 H   0  0  0  0  0  0  0  0  0  0  0  0
    2.0458   14.3387   -5.9491 H   0  0  0  0  0  0  0  0  0  0  0  0
    1.8306   13.5974   -7.5322 H   0  0  0  0  0  0  0  0  0  0  0  0
    1.2785   15.2425   -7.2567 H   0  0  0  0  0  0  0  0  0  0  0  0
    0.1055   11.5999   -6.7968 H   0  0  0  0  0  0  0  0  0  0  0  0
    1.1869   12.1461   -5.4880 H   0  0  0  0  0  0  0  0  0  0  0  0
   -3.0491   10.9046   -3.8397 H   0  0  0  0  0  0  0  0  0  0  0  0
   -2.6899    8.5688   -4.8185 H   0  0  0  0  0  0  0  0  0  0  0  0
   -4.5253    8.0028   -5.1492 H   0  0  0  0  0  0  0  0  0  0  0  0
   -6.8604    7.2122   -3.5900 H   0  0  0  0  0  0  0  0  0  0  0  0
   -8.4772    6.1881   -4.8145 H   0  0  0  0  0  0  0  0  0  0  0  0
   -6.6811    3.8208   -5.5232 H   0  0  0  0  0  0  0  0  0  0  0  0
   -9.5706    3.8995   -4.5223 H   0  0  0  0  0  0  0  0  0  0  0  0
   -9.0642    3.3367   -6.1137 H   0  0  0  0  0  0  0  0  0  0  0  0
   -8.5837    2.4439   -4.6717 H   0  0  0  0  0  0  0  0  0  0  0  0
   -7.8175    4.8144   -2.8748 H   0  0  0  0  0  0  0  0  0  0  0  0
   -6.8868    3.3387   -3.1115 H   0  0  0  0  0  0  0  0  0  0  0  0
   -6.1240    4.9018   -3.3717 H   0  0  0  0  0  0  0  0  0  0  0  0
  -11.1924    8.4634   -7.6223 H   0  0  0  0  0  0  0  0  0  0  0  0
   -9.7279    9.0033   -8.4572 H   0  0  0  0  0  0  0  0  0  0  0  0
  -11.7984    9.4120   -9.8371 H   0  0  0  0  0  0  0  0  0  0  0  0
  -10.6325    8.3252  -10.6332 H   0  0  0  0  0  0  0  0  0  0  0  0
  -15.1720   11.7384   -6.7630 H   0  0  0  0  0  0  0  0  0  0  0  0
  -16.6675   11.4627   -7.6758 H   0  0  0  0  0  0  0  0  0  0  0  0
  -15.3178   10.3086   -7.7944 H   0  0  0  0  0  0  0  0  0  0  0  0
  -15.0596   13.8821   -7.7470 H   0  0  0  0  0  0  0  0  0  0  0  0
  -14.8237   14.0750   -9.4815 H   0  0  0  0  0  0  0  0  0  0  0  0
  -16.4327   13.6560   -8.8421 H   0  0  0  0  0  0  0  0  0  0  0  0
  -17.1551   10.7720   -9.9275 H   0  0  0  0  0  0  0  0  0  0  0  0
  -16.9922   12.3502  -10.7192 H   0  0  0  0  0  0  0  0  0  0  0  0
  -16.5603   10.8704  -11.5834 H   0  0  0  0  0  0  0  0  0  0  0  0
  -13.2709   12.4529  -10.7139 H   0  0  0  0  0  0  0  0  0  0  0  0
  -14.0947   11.5800  -12.0123 H   0  0  0  0  0  0  0  0  0  0  0  0
  -14.7270   13.1312  -11.4674 H   0  0  0  0  0  0  0  0  0  0  0  0
  -12.6845    5.3800   -9.9120 H   0  0  0  0  0  0  0  0  0  0  0  0
  -11.1527    5.8922  -10.6744 H   0  0  0  0  0  0  0  0  0  0  0  0
  -10.6697    4.8209   -8.5044 H   0  0  0  0  0  0  0  0  0  0  0  0
  -11.7646    5.9377   -7.6728 H   0  0  0  0  0  0  0  0  0  0  0  0
   -7.0998    4.2416   -7.4635 H   0  0  0  0  0  0  0  0  0  0  0  0
   -8.4292    4.6055   -8.5651 H   0  0  0  0  0  0  0  0  0  0  0  0
   -7.0374    5.7030   -8.4413 H   0  0  0  0  0  0  0  0  0  0  0  0
   -6.7545    9.7093   -4.2957 H   0  0  0  0  0  0  0  0  0  0  0  0
   -5.2843   10.2520   -3.5006 H   0  0  0  0  0  0  0  0  0  0  0  0
   -4.1637   10.1897   -5.8455 H   0  0  0  0  0  0  0  0  0  0  0  0
   -5.7158    9.0720   -7.2480 H   0  0  0  0  0  0  0  0  0  0  0  0
   -7.1088    9.9743   -6.6254 H   0  0  0  0  0  0  0  0  0  0  0  0
   -5.9530   13.1288   -7.9808 H   0  0  0  0  0  0  0  0  0  0  0  0
   -7.5100   12.3154   -7.7519 H   0  0  0  0  0  0  0  0  0  0  0  0
   -6.2299   13.5423   -5.6588 H   0  0  0  0  0  0  0  0  0  0  0  0
   -7.2700   12.1189   -5.4414 H   0  0  0  0  0  0  0  0  0  0  0  0
   -3.2020    8.1510   -0.8182 H   0  0  0  0  0  0  0  0  0  0  0  0
   -1.6211    7.9317   -1.6223 H   0  0  0  0  0  0  0  0  0  0  0  0
   -3.1083   10.5814   -1.2551 H   0  0  0  0  0  0  0  0  0  0  0  0
   -1.6216   10.1045   -0.4262 H   0  0  0  0  0  0  0  0  0  0  0  0
   -0.4098   10.0256   -2.5763 H   0  0  0  0  0  0  0  0  0  0  0  0
   -1.1769   11.6152   -2.4079 H   0  0  0  0  0  0  0  0  0  0  0  0
   -2.8285    9.3552  -10.7909 H   0  0  0  0  0  0  0  0  0  0  0  0
   -5.0295    9.4321   -9.6801 H   0  0  0  0  0  0  0  0  0  0  0  0
   -3.8007   12.7103   -7.2329 H   0  0  0  0  0  0  0  0  0  0  0  0
  1  2  1  0  0  0  0
  2  3  1  0  0  0  0
  3  4  1  0  0  0  0
  2  5  1  0  0  0  0
  5  6  4  0  0  0  0
  6  7  4  0  0  0  0
  7  8  4  0  0  0  0
  8  9  4  0  0  0  0
  5 10  4  0  0  0  0
  9 10  4  0  0  0  0
 10 11  1  0  0  0  0
 11 12  1  0  0  0  0
 12 13  1  0  0  0  0
 13 14  1  0  0  0  0
 11 15  2  0  0  0  0
 15 16  1  0  0  0  0
 16 17  1  0  0  0  0
 17 18  1  0  0  0  0
 17 19  1  0  0  0  0
 17 20  1  0  0  0  0
 20 21  1  0  0  0  0
 21 22  1  0  0  0  0
 22 23  1  0  0  0  0
 23 24  1  0  0  0  0
 24 25  1  0  0  0  0
 25 26  4  0  0  0  0
 26 27  1  0  0  0  0
 27 28  1  0  0  0  0
 28 29  4  0  0  0  0
 29 30  1  0  0  0  0
 30 31  1  0  0  0  0
 31 32  1  0  0  0  0
 31 33  1  0  0  0  0
 30 34  1  0  0  0  0
 34 35  4  0  0  0  0
 35 36  1  0  0  0  0
 36 37  1  0  0  0  0
 37 38  1  0  0  0  0
 38 39  1  0  0  0  0
 39 40  4  0  0  0  0
 40 41  1  0  0  0  0
 41 42  3  0  0  0  0
 42 43  1  0  0  0  0
 43 44  1  0  0  0  0
 44 45  1  0  0  0  0
 44 46  1  0  0  0  0
 43 47  1  0  0  0  0
 43 48  1  0  0  0  0
 40 49  2  0  0  0  0
 39 50  1  0  0  0  0
 36 51  1  0  0  0  0
 50 51  1  0  0  0  0
 35 52  2  0  0  0  0
 34 53  1  0  0  0  0
 29 54  2  0  0  0  0
 27 55  1  0  0  0  0
 55 56  1  0  0  0  0
 56 57  1  0  0  0  0
 57 58  1  0  0  0  0
 58 59  1  0  0  0  0
 59 60  1  0  0  0  0
 56 61  1  0  0  0  0
 60 61  1  0  0  0  0
 26 62  2  0  0  0  0
 25 63  1  0  0  0  0
 63 64  1  0  0  0  0
 23 65  1  0  0  0  0
 64 65  1  0  0  0  0
 22 66  2  0  0  0  0
 15 67  4  0  0  0  0
 12 68  1  0  0  0  0
 67 68  4  0  0  0  0
 68 69  4  0  0  0  0
 69 70  2  0  0  0  0
 58 71  1  0  0  0  0
 70 71  4  0  0  0  0
 67 72  4  0  0  0  0
 71 72  4  0  0  0  0
 36 73  1  0  0  0  0
  1 74  1  0  0  0  0
  1 75  1  0  0  0  0
  1 76  1  0  0  0  0
  2 77  1  0  0  0  0
  4 78  1  0  0  0  0
  4 79  1  0  0  0  0
  4 80  1  0  0  0  0
  7 81  1  0  0  0  0
  8 82  1  0  0  0  0
  9 83  1  0  0  0  0
 13 84  1  0  0  0  0
 13 85  1  0  0  0  0
 14 86  1  0  0  0  0
 14 87  1  0  0  0  0
 14 88  1  0  0  0  0
 16 89  1  0  0  0  0
 16 90  1  0  0  0  0
 18 91  1  0  0  0  0
 18 92  1  0  0  0  0
 18 93  1  0  0  0  0
 19 94  1  0  0  0  0
 19 95  1  0  0  0  0
 19 96  1  0  0  0  0
 20 97  1  0  0  0  0
 20 98  1  0  0  0  0
 23 99  1  0  0  0  0
 24100  1  0  0  0  0
 27101  1  0  0  0  0
 28102  1  0  0  0  0
 30103  1  0  0  0  0
 31104  1  0  0  0  0
 32105  1  0  0  0  0
 32106  1  0  0  0  0
 32107  1  0  0  0  0
 33108  1  0  0  0  0
 33109  1  0  0  0  0
 33110  1  0  0  0  0
 37111  1  0  0  0  0
 37112  1  0  0  0  0
 38113  1  0  0  0  0
 38114  1  0  0  0  0
 45115  1  0  0  0  0
 45116  1  0  0  0  0
 45117  1  0  0  0  0
 46118  1  0  0  0  0
 46119  1  0  0  0  0
 46120  1  0  0  0  0
 47121  1  0  0  0  0
 47122  1  0  0  0  0
 47123  1  0  0  0  0
 48124  1  0  0  0  0
 48125  1  0  0  0  0
 48126  1  0  0  0  0
 50127  1  0  0  0  0
 50128  1  0  0  0  0
 51129  1  0  0  0  0
 51130  1  0  0  0  0
 53131  1  0  0  0  0
 53132  1  0  0  0  0
 53133  1  0  0  0  0
 55134  1  0  0  0  0
 55135  1  0  0  0  0
 56136  1  0  0  0  0
 57137  1  0  0  0  0
 57138  1  0  0  0  0
 59139  1  0  0  0  0
 59140  1  0  0  0  0
 60141  1  0  0  0  0
 60142  1  0  0  0  0
 63143  1  0  0  0  0
 63144  1  0  0  0  0
 64145  1  0  0  0  0
 64146  1  0  0  0  0
 65147  1  0  0  0  0
 65148  1  0  0  0  0
 69149  1  0  0  0  0
 70150  1  0  0  0  0
 72151  1  0  0  0  0
M  END
$$$$
