 xtb: 6.7.1 (edcfbbe)
          08232519503D

151157  0     0  0            999 V2000
   -1.3889   -6.4591   -1.4369 C   0  0  0  0  0  0  0  0  0  0  0  0
   -2.2487   -5.2633   -1.8411 C   0  0  0  0  0  0  0  0  0  0  0  0
   -3.5941   -5.4030   -1.3969 O   0  0  0  0  0  0  0  0  0  0  0  0
   -3.8516   -4.8961   -0.1115 C   0  0  0  0  0  0  0  0  0  0  0  0
   -2.3658   -5.1372   -3.3448 C   0  0  0  0  0  0  0  0  0  0  0  0
   -2.6201   -6.2521   -4.0092 N   0  0  0  0  0  0  0  0  0  0  0  0
   -2.9078   -6.1872   -5.2946 C   0  0  0  0  0  0  0  0  0  0  0  0
   -2.9939   -4.9912   -5.9903 C   0  0  0  0  0  0  0  0  0  0  0  0
   -2.6860   -3.8258   -5.3123 C   0  0  0  0  0  0  0  0  0  0  0  0
   -2.3309   -3.8830   -3.9664 C   0  0  0  0  0  0  0  0  0  0  0  0
   -1.9034   -2.6630   -3.2661 C   0  0  0  0  0  0  0  0  0  0  0  0
   -2.8095   -1.7072   -2.8776 N   0  0  0  0  0  0  0  0  0  0  0  0
   -4.2426   -1.8411   -2.9114 C   0  0  0  0  0  0  0  0  0  0  0  0
   -4.8687   -1.0398   -4.0510 C   0  0  0  0  0  0  0  0  0  0  0  0
   -0.6207   -2.2597   -2.9621 C   0  0  0  0  0  0  0  0  0  0  0  0
    0.6638   -3.0146   -3.1134 C   0  0  0  0  0  0  0  0  0  0  0  0
    1.4258   -2.8360   -4.4479 C   0  0  0  0  0  0  0  0  0  0  0  0
    0.5765   -3.3534   -5.6098 C   0  0  0  0  0  0  0  0  0  0  0  0
    2.7233   -3.6449   -4.3759 C   0  0  0  0  0  0  0  0  0  0  0  0
    1.7324   -1.3504   -4.7355 C   0  0  0  0  0  0  0  0  0  0  0  0
    2.9730   -0.8643   -4.2040 O   0  0  0  0  0  0  0  0  0  0  0  0
    3.9976   -0.8012   -5.0521 C   0  0  0  0  0  0  0  0  0  0  0  0
    5.1903   -0.0676   -4.4489 C   0  0  0  0  0  0  0  0  0  0  0  0
    5.6382   -0.6298   -3.1820 N   0  0  0  0  0  0  0  0  0  0  0  0
    6.5757    0.2310   -2.5977 N   0  0  0  0  0  0  0  0  0  0  0  0
    6.3003    1.2891   -1.8014 C   0  0  0  0  0  0  0  0  0  0  0  0
    4.8388    1.4214   -1.3313 C   0  0  0  0  0  0  0  0  0  0  0  0
    4.7398    0.9346    0.0301 N   0  0  0  0  0  0  0  0  0  0  0  0
    4.5149   -0.3582    0.2951 C   0  0  0  0  0  0  0  0  0  0  0  0
    4.4706   -0.7151    1.7834 C   0  0  0  0  0  0  0  0  0  0  0  0
    5.7968   -1.3390    2.2458 C   0  0  0  0  0  0  0  0  0  0  0  0
    5.7643   -1.5715    3.7555 C   0  0  0  0  0  0  0  0  0  0  0  0
    6.9610   -0.4152    1.8892 C   0  0  0  0  0  0  0  0  0  0  0  0
    3.2985   -1.5631    2.0120 N   0  0  0  0  0  0  0  0  0  0  0  0
    2.1631   -0.8987    2.2875 C   0  0  0  0  0  0  0  0  0  0  0  0
    0.8269   -1.6524    2.4181 C   0  0  0  0  0  0  0  0  0  0  0  0
    0.2682   -1.9781    1.0292 C   0  0  0  0  0  0  0  0  0  0  0  0
   -1.1171   -2.6150    1.1442 C   0  0  0  0  0  0  0  0  0  0  0  0
   -1.9986   -1.7385    1.8748 N   0  0  0  0  0  0  0  0  0  0  0  0
   -3.0833   -1.2032    1.2710 C   0  0  0  0  0  0  0  0  0  0  0  0
   -3.7392   -0.1411    1.9907 C   0  0  0  0  0  0  0  0  0  0  0  0
   -4.3563    0.8023    2.4128 C   0  0  0  0  0  0  0  0  0  0  0  0
   -5.0160    2.0127    2.8939 C   0  0  0  0  0  0  0  0  0  0  0  0
   -5.6414    1.7455    4.1928 N   0  0  0  0  0  0  0  0  0  0  0  0
   -4.7779    1.1046    5.1601 C   0  0  0  0  0  0  0  0  0  0  0  0
   -6.3210    2.8755    4.7872 C   0  0  0  0  0  0  0  0  0  0  0  0
   -3.9432    3.1244    2.9138 C   0  0  0  0  0  0  0  0  0  0  0  0
   -6.0994    2.3551    1.8563 C   0  0  0  0  0  0  0  0  0  0  0  0
   -3.4855   -1.5697    0.1784 O   0  0  0  0  0  0  0  0  0  0  0  0
   -1.5531   -1.4307    3.2095 C   0  0  0  0  0  0  0  0  0  0  0  0
   -0.1713   -0.7799    3.1852 C   0  0  0  0  0  0  0  0  0  0  0  0
    2.1466    0.3188    2.4157 O   0  0  0  0  0  0  0  0  0  0  0  0
    3.4243   -2.9624    1.6658 C   0  0  0  0  0  0  0  0  0  0  0  0
    4.3436   -1.1886   -0.5865 O   0  0  0  0  0  0  0  0  0  0  0  0
    4.3779    2.8740   -1.4288 C   0  0  0  0  0  0  0  0  0  0  0  0
    2.9185    3.0919   -0.9996 C   0  0  0  0  0  0  0  0  0  0  0  0
    2.0345    1.8799   -1.3022 C   0  0  0  0  0  0  0  0  0  0  0  0
    0.6650    2.1310   -0.9022 N   0  0  0  0  0  0  0  0  0  0  0  0
    0.6289    2.4678    0.5155 C   0  0  0  0  0  0  0  0  0  0  0  0
    1.5573    3.6524    0.7845 C   0  0  0  0  0  0  0  0  0  0  0  0
    2.8813    3.3806    0.3847 O   0  0  0  0  0  0  0  0  0  0  0  0
    7.1645    2.0503   -1.4074 O   0  0  0  0  0  0  0  0  0  0  0  0
    7.8229    0.1802   -3.3388 C   0  0  0  0  0  0  0  0  0  0  0  0
    7.5611    0.6766   -4.7642 C   0  0  0  0  0  0  0  0  0  0  0  0
    6.4015   -0.1007   -5.3878 C   0  0  0  0  0  0  0  0  0  0  0  0
    3.9693   -1.1851   -6.1913 O   0  0  0  0  0  0  0  0  0  0  0  0
   -0.7510   -0.9760   -2.3547 C   0  0  0  0  0  0  0  0  0  0  0  0
   -2.1284   -0.6691   -2.3080 C   0  0  0  0  0  0  0  0  0  0  0  0
   -2.5666    0.5240   -1.7416 C   0  0  0  0  0  0  0  0  0  0  0  0
   -1.6239    1.4022   -1.2586 C   0  0  0  0  0  0  0  0  0  0  0  0
   -0.2438    1.1283   -1.3200 C   0  0  0  0  0  0  0  0  0  0  0  0
    0.1871   -0.0755   -1.8503 C   0  0  0  0  0  0  0  0  0  0  0  0
    0.9936   -2.8334    3.1436 F   0  0  0  0  0  0  0  0  0  0  0  0
   -1.3935   -6.5832   -0.3567 H   0  0  0  0  0  0  0  0  0  0  0  0
   -1.7916   -7.3526   -1.9037 H   0  0  0  0  0  0  0  0  0  0  0  0
   -0.3653   -6.3098   -1.7707 H   0  0  0  0  0  0  0  0  0  0  0  0
   -1.8243   -4.3334   -1.4345 H   0  0  0  0  0  0  0  0  0  0  0  0
   -3.2069   -5.3549    0.6471 H   0  0  0  0  0  0  0  0  0  0  0  0
   -3.7312   -3.8074   -0.0816 H   0  0  0  0  0  0  0  0  0  0  0  0
   -4.8883   -5.1471    0.1061 H   0  0  0  0  0  0  0  0  0  0  0  0
   -3.0913   -7.1368   -5.7802 H   0  0  0  0  0  0  0  0  0  0  0  0
   -3.2777   -4.9729   -7.0310 H   0  0  0  0  0  0  0  0  0  0  0  0
   -2.7115   -2.8715   -5.8202 H   0  0  0  0  0  0  0  0  0  0  0  0
   -4.4853   -2.9016   -3.0193 H   0  0  0  0  0  0  0  0  0  0  0  0
   -4.6292   -1.4965   -1.9485 H   0  0  0  0  0  0  0  0  0  0  0  0
   -4.5874    0.0081   -3.9777 H   0  0  0  0  0  0  0  0  0  0  0  0
   -4.5386   -1.4188   -5.0155 H   0  0  0  0  0  0  0  0  0  0  0  0
   -5.9517   -1.1156   -4.0034 H   0  0  0  0  0  0  0  0  0  0  0  0
    1.3314   -2.7059   -2.3051 H   0  0  0  0  0  0  0  0  0  0  0  0
    0.4618   -4.0826   -2.9946 H   0  0  0  0  0  0  0  0  0  0  0  0
    0.2387   -4.3677   -5.4119 H   0  0  0  0  0  0  0  0  0  0  0  0
   -0.2946   -2.7204   -5.7509 H   0  0  0  0  0  0  0  0  0  0  0  0
    1.1567   -3.3562   -6.5298 H   0  0  0  0  0  0  0  0  0  0  0  0
    3.3355   -3.3249   -3.5350 H   0  0  0  0  0  0  0  0  0  0  0  0
    2.4943   -4.7011   -4.2539 H   0  0  0  0  0  0  0  0  0  0  0  0
    3.2991   -3.5218   -5.2902 H   0  0  0  0  0  0  0  0  0  0  0  0
    1.7661   -1.1978   -5.8187 H   0  0  0  0  0  0  0  0  0  0  0  0
    0.9568   -0.7161   -4.3024 H   0  0  0  0  0  0  0  0  0  0  0  0
    4.8533    0.9826   -4.3277 H   0  0  0  0  0  0  0  0  0  0  0  0
    4.9071   -0.8999   -2.5269 H   0  0  0  0  0  0  0  0  0  0  0  0
    4.1974    0.7932   -1.9534 H   0  0  0  0  0  0  0  0  0  0  0  0
    4.8003    1.6232    0.7640 H   0  0  0  0  0  0  0  0  0  0  0  0
    4.2969    0.2001    2.3588 H   0  0  0  0  0  0  0  0  0  0  0  0
    5.9477   -2.2888    1.7260 H   0  0  0  0  0  0  0  0  0  0  0  0
    4.9052   -2.1676    4.0520 H   0  0  0  0  0  0  0  0  0  0  0  0
    6.6673   -2.0858    4.0753 H   0  0  0  0  0  0  0  0  0  0  0  0
    5.7092   -0.6190    4.2783 H   0  0  0  0  0  0  0  0  0  0  0  0
    7.8901   -0.8362    2.2657 H   0  0  0  0  0  0  0  0  0  0  0  0
    7.0584   -0.2930    0.8133 H   0  0  0  0  0  0  0  0  0  0  0  0
    6.8275    0.5667    2.3380 H   0  0  0  0  0  0  0  0  0  0  0  0
    0.1922   -1.0459    0.4651 H   0  0  0  0  0  0  0  0  0  0  0  0
    0.9307   -2.6505    0.4850 H   0  0  0  0  0  0  0  0  0  0  0  0
   -1.5376   -2.7635    0.1486 H   0  0  0  0  0  0  0  0  0  0  0  0
   -1.0450   -3.5792    1.6609 H   0  0  0  0  0  0  0  0  0  0  0  0
   -5.3877    0.7949    6.0087 H   0  0  0  0  0  0  0  0  0  0  0  0
   -4.3301    0.2172    4.7175 H   0  0  0  0  0  0  0  0  0  0  0  0
   -3.9765    1.7592    5.5374 H   0  0  0  0  0  0  0  0  0  0  0  0
   -6.9151    2.5077    5.6241 H   0  0  0  0  0  0  0  0  0  0  0  0
   -5.6343    3.6452    5.1719 H   0  0  0  0  0  0  0  0  0  0  0  0
   -6.9979    3.3308    4.0700 H   0  0  0  0  0  0  0  0  0  0  0  0
   -3.1525    2.8850    3.6215 H   0  0  0  0  0  0  0  0  0  0  0  0
   -3.5008    3.2202    1.9255 H   0  0  0  0  0  0  0  0  0  0  0  0
   -4.3917    4.0760    3.1882 H   0  0  0  0  0  0  0  0  0  0  0  0
   -6.4454    3.3789    1.9702 H   0  0  0  0  0  0  0  0  0  0  0  0
   -5.6916    2.2423    0.8547 H   0  0  0  0  0  0  0  0  0  0  0  0
   -6.9397    1.6757    1.9705 H   0  0  0  0  0  0  0  0  0  0  0  0
   -2.2726   -0.7633    3.6862 H   0  0  0  0  0  0  0  0  0  0  0  0
   -1.5023   -2.3653    3.7827 H   0  0  0  0  0  0  0  0  0  0  0  0
    0.1908   -0.6359    4.2040 H   0  0  0  0  0  0  0  0  0  0  0  0
   -0.2207    0.1931    2.6977 H   0  0  0  0  0  0  0  0  0  0  0  0
    4.1080   -3.4599    2.3545 H   0  0  0  0  0  0  0  0  0  0  0  0
    2.4720   -3.4733    1.7208 H   0  0  0  0  0  0  0  0  0  0  0  0
    3.8150   -3.0399    0.6496 H   0  0  0  0  0  0  0  0  0  0  0  0
    5.0204    3.4953   -0.8026 H   0  0  0  0  0  0  0  0  0  0  0  0
    4.4991    3.2004   -2.4629 H   0  0  0  0  0  0  0  0  0  0  0  0
    2.5116    3.9627   -1.5434 H   0  0  0  0  0  0  0  0  0  0  0  0
    2.0515    1.6794   -2.3760 H   0  0  0  0  0  0  0  0  0  0  0  0
    2.4312    1.0175   -0.7471 H   0  0  0  0  0  0  0  0  0  0  0  0
   -0.3905    2.7245    0.8049 H   0  0  0  0  0  0  0  0  0  0  0  0
    0.9793    1.6234    1.1292 H   0  0  0  0  0  0  0  0  0  0  0  0
    1.1882    4.5415    0.2497 H   0  0  0  0  0  0  0  0  0  0  0  0
    1.6003    3.8588    1.8547 H   0  0  0  0  0  0  0  0  0  0  0  0
    8.5497    0.8093   -2.8254 H   0  0  0  0  0  0  0  0  0  0  0  0
    8.1616   -0.8575   -3.3501 H   0  0  0  0  0  0  0  0  0  0  0  0
    7.3130    1.7401   -4.7251 H   0  0  0  0  0  0  0  0  0  0  0  0
    8.4609    0.5587   -5.3674 H   0  0  0  0  0  0  0  0  0  0  0  0
    6.6861   -1.1434   -5.5320 H   0  0  0  0  0  0  0  0  0  0  0  0
    6.1309    0.3163   -6.3574 H   0  0  0  0  0  0  0  0  0  0  0  0
   -3.6172    0.7601   -1.6769 H   0  0  0  0  0  0  0  0  0  0  0  0
   -1.9424    2.3441   -0.8379 H   0  0  0  0  0  0  0  0  0  0  0  0
    1.2298   -0.3447   -1.8920 H   0  0  0  0  0  0  0  0  0  0  0  0
  1  2  1  0  0  0  0
  2  3  1  0  0  0  0
  3  4  1  0  0  0  0
  2  5  1  0  0  0  0
  5  6  4  0  0  0  0
  6  7  4  0  0  0  0
  7  8  4  0  0  0  0
  8  9  4  0  0  0  0
  5 10  4  0  0  0  0
  9 10  4  0  0  0  0
 10 11  1  0  0  0  0
 11 12  1  0  0  0  0
 12 13  1  0  0  0  0
 13 14  1  0  0  0  0
 11 15  2  0  0  0  0
 15 16  1  0  0  0  0
 16 17  1  0  0  0  0
 17 18  1  0  0  0  0
 17 19  1  0  0  0  0
 17 20  1  0  0  0  0
 20 21  1  0  0  0  0
 21 22  1  0  0  0  0
 22 23  1  0  0  0  0
 23 24  1  0  0  0  0
 24 25  1  0  0  0  0
 25 26  4  0  0  0  0
 26 27  1  0  0  0  0
 27 28  1  0  0  0  0
 28 29  4  0  0  0  0
 29 30  1  0  0  0  0
 30 31  1  0  0  0  0
 31 32  1  0  0  0  0
 31 33  1  0  0  0  0
 30 34  1  0  0  0  0
 34 35  4  0  0  0  0
 35 36  1  0  0  0  0
 36 37  1  0  0  0  0
 37 38  1  0  0  0  0
 38 39  1  0  0  0  0
 39 40  4  0  0  0  0
 40 41  1  0  0  0  0
 41 42  3  0  0  0  0
 42 43  1  0  0  0  0
 43 44  1  0  0  0  0
 44 45  1  0  0  0  0
 44 46  1  0  0  0  0
 43 47  1  0  0  0  0
 43 48  1  0  0  0  0
 40 49  2  0  0  0  0
 39 50  1  0  0  0  0
 36 51  1  0  0  0  0
 50 51  1  0  0  0  0
 35 52  2  0  0  0  0
 34 53  1  0  0  0  0
 29 54  2  0  0  0  0
 27 55  1  0  0  0  0
 55 56  1  0  0  0  0
 56 57  1  0  0  0  0
 57 58  1  0  0  0  0
 58 59  1  0  0  0  0
 59 60  1  0  0  0  0
 56 61  1  0  0  0  0
 60 61  1  0  0  0  0
 26 62  2  0  0  0  0
 25 63  1  0  0  0  0
 63 64  1  0  0  0  0
 23 65  1  0  0  0  0
 64 65  1  0  0  0  0
 22 66  2  0  0  0  0
 15 67  4  0  0  0  0
 12 68  1  0  0  0  0
 67 68  4  0  0  0  0
 68 69  4  0  0  0  0
 69 70  2  0  0  0  0
 58 71  1  0  0  0  0
 70 71  4  0  0  0  0
 67 72  4  0  0  0  0
 71 72  4  0  0  0  0
 36 73  1  0  0  0  0
  1 74  1  0  0  0  0
  1 75  1  0  0  0  0
  1 76  1  0  0  0  0
  2 77  1  0  0  0  0
  4 78  1  0  0  0  0
  4 79  1  0  0  0  0
  4 80  1  0  0  0  0
  7 81  1  0  0  0  0
  8 82  1  0  0  0  0
  9 83  1  0  0  0  0
 13 84  1  0  0  0  0
 13 85  1  0  0  0  0
 14 86  1  0  0  0  0
 14 87  1  0  0  0  0
 14 88  1  0  0  0  0
 16 89  1  0  0  0  0
 16 90  1  0  0  0  0
 18 91  1  0  0  0  0
 18 92  1  0  0  0  0
 18 93  1  0  0  0  0
 19 94  1  0  0  0  0
 19 95  1  0  0  0  0
 19 96  1  0  0  0  0
 20 97  1  0  0  0  0
 20 98  1  0  0  0  0
 23 99  1  0  0  0  0
 24100  1  0  0  0  0
 27101  1  0  0  0  0
 28102  1  0  0  0  0
 30103  1  0  0  0  0
 31104  1  0  0  0  0
 32105  1  0  0  0  0
 32106  1  0  0  0  0
 32107  1  0  0  0  0
 33108  1  0  0  0  0
 33109  1  0  0  0  0
 33110  1  0  0  0  0
 37111  1  0  0  0  0
 37112  1  0  0  0  0
 38113  1  0  0  0  0
 38114  1  0  0  0  0
 45115  1  0  0  0  0
 45116  1  0  0  0  0
 45117  1  0  0  0  0
 46118  1  0  0  0  0
 46119  1  0  0  0  0
 46120  1  0  0  0  0
 47121  1  0  0  0  0
 47122  1  0  0  0  0
 47123  1  0  0  0  0
 48124  1  0  0  0  0
 48125  1  0  0  0  0
 48126  1  0  0  0  0
 50127  1  0  0  0  0
 50128  1  0  0  0  0
 51129  1  0  0  0  0
 51130  1  0  0  0  0
 53131  1  0  0  0  0
 53132  1  0  0  0  0
 53133  1  0  0  0  0
 55134  1  0  0  0  0
 55135  1  0  0  0  0
 56136  1  0  0  0  0
 57137  1  0  0  0  0
 57138  1  0  0  0  0
 59139  1  0  0  0  0
 59140  1  0  0  0  0
 60141  1  0  0  0  0
 60142  1  0  0  0  0
 63143  1  0  0  0  0
 63144  1  0  0  0  0
 64145  1  0  0  0  0
 64146  1  0  0  0  0
 65147  1  0  0  0  0
 65148  1  0  0  0  0
 69149  1  0  0  0  0
 70150  1  0  0  0  0
 72151  1  0  0  0  0
M  END
$$$$
