mol_bioactive_13
     RDKit          3D

151157  0  0  0  0  0  0  0  0999 V2000
   -6.4798    1.7976    0.0656 C   0  0  0  0  0  0  0  0  0  0  0  0
   -6.8193    2.4507   -1.2687 C   0  0  2  0  0  0  0  0  0  0  0  0
   -6.1091    1.7573   -2.3097 O   0  0  0  0  0  0  0  0  0  0  0  0
   -6.7371    1.8985   -3.5787 C   0  0  0  0  0  0  0  0  0  0  0  0
   -6.6092    3.9599   -1.3094 C   0  0  0  0  0  0  0  0  0  0  0  0
   -7.7294    4.6484   -1.6977 N   0  0  0  0  0  0  0  0  0  0  0  0
   -7.6690    5.9920   -1.7837 C   0  0  0  0  0  0  0  0  0  0  0  0
   -6.5362    6.7205   -1.4980 C   0  0  0  0  0  0  0  0  0  0  0  0
   -5.4003    6.0250   -1.1020 C   0  0  0  0  0  0  0  0  0  0  0  0
   -5.4089    4.6245   -1.0041 C   0  0  0  0  0  0  0  0  0  0  0  0
   -4.1667    3.9745   -0.5627 C   0  0  0  0  0  0  0  0  0  0  0  0
   -3.7784    3.9109    0.7702 N   0  0  0  0  0  0  0  0  0  0  0  0
   -4.5306    4.4317    1.9060 C   0  0  0  0  0  0  0  0  0  0  0  0
   -4.0231    5.7881    2.3667 C   0  0  0  0  0  0  0  0  0  0  0  0
   -3.1595    3.3684   -1.3165 C   0  0  0  0  0  0  0  0  0  0  0  0
   -3.0970    3.1947   -2.8192 C   0  0  0  0  0  0  0  0  0  0  0  0
   -2.2737    4.2366   -3.6369 C   0  0  0  0  0  0  0  0  0  0  0  0
   -2.7326    5.6728   -3.3214 C   0  0  0  0  0  0  0  0  0  0  0  0
   -2.5640    3.9764   -5.1327 C   0  0  0  0  0  0  0  0  0  0  0  0
   -0.7458    4.1574   -3.3793 C   0  0  0  0  0  0  0  0  0  0  0  0
   -0.1167    2.9801   -3.9366 O   0  0  0  0  0  0  0  0  0  0  0  0
    0.6461    3.1929   -5.0584 C   0  0  0  0  0  0  0  0  0  0  0  0
    1.4720    1.9508   -5.4293 C   0  0  1  0  0  0  0  0  0  0  0  0
    0.6572    0.7251   -5.3644 N   0  0  0  0  0  0  0  0  0  0  0  0
    1.4374   -0.4241   -5.6802 N   0  0  0  0  0  0  0  0  0  0  0  0
    1.7142   -1.4952   -4.8174 C   0  0  0  0  0  0  0  0  0  0  0  0
    1.4128   -1.3019   -3.3198 C   0  0  1  0  0  0  0  0  0  0  0  0
    0.9331   -2.5295   -2.7047 N   0  0  0  0  0  0  0  0  0  0  0  0
   -0.4104   -2.8309   -2.6860 C   0  0  0  0  0  0  0  0  0  0  0  0
   -0.7866   -4.1354   -1.9408 C   0  0  2  0  0  0  0  0  0  0  0  0
   -0.9985   -5.3095   -2.9338 C   0  0  0  0  0  0  0  0  0  0  0  0
   -1.3844   -6.5949   -2.1906 C   0  0  0  0  0  0  0  0  0  0  0  0
    0.2608   -5.5868   -3.7652 C   0  0  0  0  0  0  0  0  0  0  0  0
   -1.9448   -3.8503   -1.0443 N   0  0  0  0  0  0  0  0  0  0  0  0
   -1.6383   -3.4258    0.2545 C   0  0  0  0  0  0  0  0  0  0  0  0
   -2.7416   -2.8298    1.1684 C   0  0  0  0  0  0  0  0  0  0  0  0
   -2.2550   -2.8170    2.6247 C   0  0  0  0  0  0  0  0  0  0  0  0
   -3.2714   -2.1576    3.5436 C   0  0  0  0  0  0  0  0  0  0  0  0
   -3.6324   -0.8242    3.0723 N   0  0  0  0  0  0  0  0  0  0  0  0
   -4.0678    0.1801    3.9382 C   0  0  0  0  0  0  0  0  0  0  0  0
   -3.8386    0.0234    5.3578 C   0  0  0  0  0  0  0  0  0  0  0  0
   -3.6636   -0.0890    6.5423 C   0  0  0  0  0  0  0  0  0  0  0  0
   -3.4717   -0.2157    8.0106 C   0  0  0  0  0  0  0  0  0  0  0  0
   -2.8250   -1.5249    8.2954 N   0  0  0  0  0  0  0  0  0  0  0  0
   -1.4522   -1.6336    7.7899 C   0  0  0  0  0  0  0  0  0  0  0  0
   -2.8482   -1.9224    9.7048 C   0  0  0  0  0  0  0  0  0  0  0  0
   -2.6629    1.0024    8.5055 C   0  0  0  0  0  0  0  0  0  0  0  0
   -4.8866   -0.1352    8.6367 C   0  0  0  0  0  0  0  0  0  0  0  0
   -4.6351    1.2042    3.5717 O   0  0  0  0  0  0  0  0  0  0  0  0
   -4.0505   -0.7306    1.6817 C   0  0  0  0  0  0  0  0  0  0  0  0
   -3.0805   -1.4057    0.7249 C   0  0  0  0  0  0  0  0  0  0  0  0
   -0.4724   -3.4805    0.6684 O   0  0  0  0  0  0  0  0  0  0  0  0
   -3.2631   -3.6775   -1.6583 C   0  0  0  0  0  0  0  0  0  0  0  0
   -1.2380   -2.0996   -3.2286 O   0  0  0  0  0  0  0  0  0  0  0  0
    2.6772   -0.7627   -2.6194 C   0  0  0  0  0  0  0  0  0  0  0  0
    2.4751   -0.3376   -1.1511 C   0  0  1  0  0  0  0  0  0  0  0  0
    1.2118    0.5194   -0.9874 C   0  0  0  0  0  0  0  0  0  0  0  0
    0.9429    0.8975    0.4137 N   0  0  0  0  0  0  0  0  0  0  0  0
    0.9875   -0.2930    1.3056 C   0  0  0  0  0  0  0  0  0  0  0  0
    2.2576   -1.1286    1.0538 C   0  0  0  0  0  0  0  0  0  0  0  0
    2.4059   -1.5101   -0.3254 O   0  0  0  0  0  0  0  0  0  0  0  0
    2.2723   -2.5277   -5.2073 O   0  0  0  0  0  0  0  0  0  0  0  0
    1.9148   -0.4419   -7.0644 C   0  0  0  0  0  0  0  0  0  0  0  0
    2.7631    0.8071   -7.3103 C   0  0  0  0  0  0  0  0  0  0  0  0
    2.0290    2.0782   -6.8615 C   0  0  0  0  0  0  0  0  0  0  0  0
    0.7279    4.2638   -5.6481 O   0  0  0  0  0  0  0  0  0  0  0  0
   -2.2088    2.8434   -0.3819 C   0  0  0  0  0  0  0  0  0  0  0  0
   -2.5935    3.2126    0.8981 C   0  0  0  0  0  0  0  0  0  0  0  0
   -1.8274    2.8671    2.0230 C   0  0  0  0  0  0  0  0  0  0  0  0
   -0.6555    2.1138    1.8329 C   0  0  0  0  0  0  0  0  0  0  0  0
   -0.2430    1.6739    0.5706 C   0  0  0  0  0  0  0  0  0  0  0  0
   -1.0382    2.0693   -0.5252 C   0  0  0  0  0  0  0  0  0  0  0  0
   -3.8852   -3.5843    1.1515 F   0  0  0  0  0  0  0  0  0  0  0  0
   -6.9162    2.3378    0.9121 H   0  0  0  0  0  0  0  0  0  0  0  0
   -6.8575    0.7675    0.0818 H   0  0  0  0  0  0  0  0  0  0  0  0
   -5.4012    1.7133    0.2081 H   0  0  0  0  0  0  0  0  0  0  0  0
   -7.8930    2.2648   -1.4151 H   0  0  0  0  0  0  0  0  0  0  0  0
   -7.7352    1.4474   -3.5586 H   0  0  0  0  0  0  0  0  0  0  0  0
   -6.8021    2.9492   -3.8800 H   0  0  0  0  0  0  0  0  0  0  0  0
   -6.1324    1.3669   -4.3186 H   0  0  0  0  0  0  0  0  0  0  0  0
   -8.5875    6.4784   -2.0979 H   0  0  0  0  0  0  0  0  0  0  0  0
   -6.5312    7.8013   -1.5824 H   0  0  0  0  0  0  0  0  0  0  0  0
   -4.4924    6.5807   -0.8776 H   0  0  0  0  0  0  0  0  0  0  0  0
   -5.5889    4.4914    1.6335 H   0  0  0  0  0  0  0  0  0  0  0  0
   -4.4595    3.7018    2.7186 H   0  0  0  0  0  0  0  0  0  0  0  0
   -4.6041    6.1352    3.2270 H   0  0  0  0  0  0  0  0  0  0  0  0
   -2.9697    5.7412    2.6633 H   0  0  0  0  0  0  0  0  0  0  0  0
   -4.1102    6.5365    1.5751 H   0  0  0  0  0  0  0  0  0  0  0  0
   -2.7233    2.1865   -3.0402 H   0  0  0  0  0  0  0  0  0  0  0  0
   -4.1269    3.2076   -3.1965 H   0  0  0  0  0  0  0  0  0  0  0  0
   -2.5104    5.9483   -2.2857 H   0  0  0  0  0  0  0  0  0  0  0  0
   -2.2206    6.3988   -3.9640 H   0  0  0  0  0  0  0  0  0  0  0  0
   -3.8063    5.7895   -3.4973 H   0  0  0  0  0  0  0  0  0  0  0  0
   -3.6332    4.0784   -5.3507 H   0  0  0  0  0  0  0  0  0  0  0  0
   -2.0316    4.6918   -5.7693 H   0  0  0  0  0  0  0  0  0  0  0  0
   -2.2651    2.9662   -5.4327 H   0  0  0  0  0  0  0  0  0  0  0  0
   -0.2560    5.0658   -3.7514 H   0  0  0  0  0  0  0  0  0  0  0  0
   -0.5333    4.1559   -2.3064 H   0  0  0  0  0  0  0  0  0  0  0  0
    2.2986    1.8965   -4.7101 H   0  0  0  0  0  0  0  0  0  0  0  0
    0.1136    0.6586   -4.5047 H   0  0  0  0  0  0  0  0  0  0  0  0
    0.6076   -0.5796   -3.2333 H   0  0  0  0  0  0  0  0  0  0  0  0
    1.6112   -3.1714   -2.3076 H   0  0  0  0  0  0  0  0  0  0  0  0
    0.0705   -4.4069   -1.3123 H   0  0  0  0  0  0  0  0  0  0  0  0
   -1.7976   -5.0615   -3.6424 H   0  0  0  0  0  0  0  0  0  0  0  0
   -0.6243   -6.8676   -1.4507 H   0  0  0  0  0  0  0  0  0  0  0  0
   -2.3406   -6.4879   -1.6684 H   0  0  0  0  0  0  0  0  0  0  0  0
   -1.4895   -7.4324   -2.8897 H   0  0  0  0  0  0  0  0  0  0  0  0
    1.1268   -5.7853   -3.1228 H   0  0  0  0  0  0  0  0  0  0  0  0
    0.1148   -6.4578   -4.4137 H   0  0  0  0  0  0  0  0  0  0  0  0
    0.5023   -4.7405   -4.4160 H   0  0  0  0  0  0  0  0  0  0  0  0
   -2.0780   -3.8431    2.9680 H   0  0  0  0  0  0  0  0  0  0  0  0
   -1.3029   -2.2781    2.7068 H   0  0  0  0  0  0  0  0  0  0  0  0
   -4.1933   -2.7495    3.5973 H   0  0  0  0  0  0  0  0  0  0  0  0
   -2.8560   -2.1154    4.5539 H   0  0  0  0  0  0  0  0  0  0  0  0
   -1.0935   -2.6642    7.8957 H   0  0  0  0  0  0  0  0  0  0  0  0
   -1.3894   -1.4075    6.7201 H   0  0  0  0  0  0  0  0  0  0  0  0
   -0.7512   -0.9823    8.3253 H   0  0  0  0  0  0  0  0  0  0  0  0
   -3.8699   -2.0406   10.0779 H   0  0  0  0  0  0  0  0  0  0  0  0
   -2.3815   -2.9070    9.8325 H   0  0  0  0  0  0  0  0  0  0  0  0
   -2.3152   -1.2139   10.3494 H   0  0  0  0  0  0  0  0  0  0  0  0
   -2.4886    0.9643    9.5862 H   0  0  0  0  0  0  0  0  0  0  0  0
   -1.6908    1.0844    8.0058 H   0  0  0  0  0  0  0  0  0  0  0  0
   -3.1965    1.9385    8.2965 H   0  0  0  0  0  0  0  0  0  0  0  0
   -4.8510   -0.0672    9.7297 H   0  0  0  0  0  0  0  0  0  0  0  0
   -5.4268    0.7528    8.2818 H   0  0  0  0  0  0  0  0  0  0  0  0
   -5.4951   -1.0068    8.3653 H   0  0  0  0  0  0  0  0  0  0  0  0
   -5.0447   -1.1873    1.6070 H   0  0  0  0  0  0  0  0  0  0  0  0
   -4.1524    0.3199    1.3980 H   0  0  0  0  0  0  0  0  0  0  0  0
   -2.1624   -0.8116    0.6629 H   0  0  0  0  0  0  0  0  0  0  0  0
   -3.5267   -1.3930   -0.2733 H   0  0  0  0  0  0  0  0  0  0  0  0
   -4.0652   -3.7410   -0.9254 H   0  0  0  0  0  0  0  0  0  0  0  0
   -3.3200   -2.6992   -2.1421 H   0  0  0  0  0  0  0  0  0  0  0  0
   -3.4491   -4.4583   -2.3975 H   0  0  0  0  0  0  0  0  0  0  0  0
    3.4663   -1.5240   -2.6665 H   0  0  0  0  0  0  0  0  0  0  0  0
    3.0454    0.1069   -3.1794 H   0  0  0  0  0  0  0  0  0  0  0  0
    3.3587    0.2348   -0.8394 H   0  0  0  0  0  0  0  0  0  0  0  0
    1.3325    1.4130   -1.6123 H   0  0  0  0  0  0  0  0  0  0  0  0
    0.3466   -0.0647   -1.3200 H   0  0  0  0  0  0  0  0  0  0  0  0
    0.9798   -0.0034    2.3614 H   0  0  0  0  0  0  0  0  0  0  0  0
    0.1112   -0.9196    1.1107 H   0  0  0  0  0  0  0  0  0  0  0  0
    3.1524   -0.5755    1.3647 H   0  0  0  0  0  0  0  0  0  0  0  0
    2.2154   -2.0492    1.6457 H   0  0  0  0  0  0  0  0  0  0  0  0
    2.5040   -1.3410   -7.2699 H   0  0  0  0  0  0  0  0  0  0  0  0
    1.0378   -0.4552   -7.7223 H   0  0  0  0  0  0  0  0  0  0  0  0
    3.6990    0.7235   -6.7429 H   0  0  0  0  0  0  0  0  0  0  0  0
    3.0307    0.8789   -8.3701 H   0  0  0  0  0  0  0  0  0  0  0  0
    1.2104    2.2841   -7.5644 H   0  0  0  0  0  0  0  0  0  0  0  0
    2.7156    2.9314   -6.9238 H   0  0  0  0  0  0  0  0  0  0  0  0
   -2.1243    3.1640    3.0234 H   0  0  0  0  0  0  0  0  0  0  0  0
   -0.0587    1.8872    2.7123 H   0  0  0  0  0  0  0  0  0  0  0  0
   -0.7980    1.7777   -1.5386 H   0  0  0  0  0  0  0  0  0  0  0  0
  1  2  1  0
  2  3  1  0
  2  5  1  0
  3  4  1  0
  5  6  2  0
  5 10  1  0
  6  7  1  0
  7  8  2  0
  8  9  1  0
  9 10  2  0
 10 11  1  0
 11 12  1  0
 11 15  2  0
 12 13  1  0
 12 68  1  0
 13 14  1  0
 15 16  1  0
 15 67  1  0
 16 17  1  0
 17 18  1  0
 17 19  1  0
 17 20  1  0
 20 21  1  0
 21 22  1  0
 22 23  1  0
 22 66  2  0
 23 24  1  0
 23 65  1  0
 24 25  1  0
 25 26  1  0
 25 63  1  0
 26 27  1  0
 26 62  2  0
 27 28  1  0
 27 55  1  0
 28 29  1  0
 29 30  1  0
 29 54  2  0
 30 31  1  0
 30 34  1  0
 31 32  1  0
 31 33  1  0
 34 35  1  0
 34 53  1  0
 35 36  1  0
 35 52  2  0
 36 37  1  0
 36 51  1  0
 36 73  1  0
 37 38  1  0
 38 39  1  0
 39 40  1  0
 39 50  1  0
 40 41  1  0
 40 49  2  0
 42 43  1  0
 43 44  1  0
 43 47  1  0
 43 48  1  0
 44 45  1  0
 44 46  1  0
 50 51  1  0
 55 56  1  0
 56 57  1  0
 56 61  1  0
 57 58  1  0
 58 59  1  0
 58 71  1  0
 59 60  1  0
 60 61  1  0
 63 64  1  0
 64 65  1  0
 67 68  2  0
 67 72  1  0
 68 69  1  0
 69 70  2  0
 70 71  1  0
 71 72  2  0
 41 42  3  0
  1 74  1  0
  1 75  1  0
  1 76  1  0
  2 77  1  6
  4 78  1  0
  4 79  1  0
  4 80  1  0
  7 81  1  0
  8 82  1  0
  9 83  1  0
 13 84  1  0
 13 85  1  0
 14 86  1  0
 14 87  1  0
 14 88  1  0
 16 89  1  0
 16 90  1  0
 18 91  1  0
 18 92  1  0
 18 93  1  0
 19 94  1  0
 19 95  1  0
 19 96  1  0
 20 97  1  0
 20 98  1  0
 23 99  1  1
 24100  1  0
 27101  1  6
 28102  1  0
 30103  1  1
 31104  1  0
 32105  1  0
 32106  1  0
 32107  1  0
 33108  1  0
 33109  1  0
 33110  1  0
 37111  1  0
 37112  1  0
 38113  1  0
 38114  1  0
 45115  1  0
 45116  1  0
 45117  1  0
 46118  1  0
 46119  1  0
 46120  1  0
 47121  1  0
 47122  1  0
 47123  1  0
 48124  1  0
 48125  1  0
 48126  1  0
 50127  1  0
 50128  1  0
 51129  1  0
 51130  1  0
 53131  1  0
 53132  1  0
 53133  1  0
 55134  1  0
 55135  1  0
 56136  1  1
 57137  1  0
 57138  1  0
 59139  1  0
 59140  1  0
 60141  1  0
 60142  1  0
 63143  1  0
 63144  1  0
 64145  1  0
 64146  1  0
 65147  1  0
 65148  1  0
 69149  1  0
 70150  1  0
 72151  1  0
M  END
$$$$
