 energy: -221.290705676039 gnorm: 0.000386593747 xtb: 6.7.1 (edcfbbe)
          08232515003D

151157  0     0  0            999 V2000
   -6.3718    1.5204   -0.4437 C   0  0  0  0  0  0  0  0  0  0  0  0
   -6.8810    2.4087   -1.5695 C   0  0  0  0  0  0  0  0  0  0  0  0
   -6.3943    1.8722   -2.7927 O   0  0  0  0  0  0  0  0  0  0  0  0
   -7.0575    2.3482   -3.9357 C   0  0  0  0  0  0  0  0  0  0  0  0
   -6.5065    3.8743   -1.4259 C   0  0  0  0  0  0  0  0  0  0  0  0
   -7.4902    4.6820   -1.8084 N   0  0  0  0  0  0  0  0  0  0  0  0
   -7.3364    5.9904   -1.7691 C   0  0  0  0  0  0  0  0  0  0  0  0
   -6.1661    6.5912   -1.3350 C   0  0  0  0  0  0  0  0  0  0  0  0
   -5.1357    5.7629   -0.9376 C   0  0  0  0  0  0  0  0  0  0  0  0
   -5.2764    4.3719   -0.9761 C   0  0  0  0  0  0  0  0  0  0  0  0
   -4.1129    3.5989   -0.5147 C   0  0  0  0  0  0  0  0  0  0  0  0
   -3.7208    3.7120    0.8053 N   0  0  0  0  0  0  0  0  0  0  0  0
   -4.4848    4.2682    1.8952 C   0  0  0  0  0  0  0  0  0  0  0  0
   -3.9177    5.5973    2.3931 C   0  0  0  0  0  0  0  0  0  0  0  0
   -3.1781    2.8768   -1.2262 C   0  0  0  0  0  0  0  0  0  0  0  0
   -3.2268    2.4173   -2.6498 C   0  0  0  0  0  0  0  0  0  0  0  0
   -2.6279    3.3705   -3.7062 C   0  0  0  0  0  0  0  0  0  0  0  0
   -3.2539    4.7608   -3.5903 C   0  0  0  0  0  0  0  0  0  0  0  0
   -2.9224    2.7996   -5.0953 C   0  0  0  0  0  0  0  0  0  0  0  0
   -1.1083    3.5375   -3.5122 C   0  0  0  0  0  0  0  0  0  0  0  0
   -0.3189    2.4531   -4.0208 O   0  0  0  0  0  0  0  0  0  0  0  0
    0.2543    2.6341   -5.2079 C   0  0  0  0  0  0  0  0  0  0  0  0
    1.2044    1.4937   -5.5588 C   0  0  0  0  0  0  0  0  0  0  0  0
    0.5961    0.1750   -5.4486 N   0  0  0  0  0  0  0  0  0  0  0  0
    1.5899   -0.8060   -5.5610 N   0  0  0  0  0  0  0  0  0  0  0  0
    2.3540   -1.2880   -4.5537 C   0  0  0  0  0  0  0  0  0  0  0  0
    1.9316   -0.8726   -3.1323 C   0  0  0  0  0  0  0  0  0  0  0  0
    1.1909   -1.9559   -2.5159 N   0  0  0  0  0  0  0  0  0  0  0  0
   -0.1453   -2.0268   -2.6053 C   0  0  0  0  0  0  0  0  0  0  0  0
   -0.7757   -3.1927   -1.8407 C   0  0  0  0  0  0  0  0  0  0  0  0
   -1.0624   -4.3846   -2.7737 C   0  0  0  0  0  0  0  0  0  0  0  0
   -1.5983   -5.5598   -1.9583 C   0  0  0  0  0  0  0  0  0  0  0  0
    0.2097   -4.7986   -3.5115 C   0  0  0  0  0  0  0  0  0  0  0  0
   -1.9660   -2.7257   -1.1327 N   0  0  0  0  0  0  0  0  0  0  0  0
   -1.8432   -2.5493    0.1935 C   0  0  0  0  0  0  0  0  0  0  0  0
   -3.0451   -2.0558    1.0178 C   0  0  0  0  0  0  0  0  0  0  0  0
   -2.8569   -2.4457    2.4882 C   0  0  0  0  0  0  0  0  0  0  0  0
   -3.9788   -1.8678    3.3532 C   0  0  0  0  0  0  0  0  0  0  0  0
   -4.0837   -0.4423    3.1680 N   0  0  0  0  0  0  0  0  0  0  0  0
   -3.9903    0.4869    4.1437 C   0  0  0  0  0  0  0  0  0  0  0  0
   -3.7337   -0.0253    5.4657 C   0  0  0  0  0  0  0  0  0  0  0  0
   -3.5206   -0.2822    6.6219 C   0  0  0  0  0  0  0  0  0  0  0  0
   -3.2925   -0.6344    8.0200 C   0  0  0  0  0  0  0  0  0  0  0  0
   -2.6934   -1.9736    8.0553 N   0  0  0  0  0  0  0  0  0  0  0  0
   -1.4574   -2.0865    7.3081 C   0  0  0  0  0  0  0  0  0  0  0  0
   -2.5420   -2.5525    9.3719 C   0  0  0  0  0  0  0  0  0  0  0  0
   -2.4289    0.4758    8.6530 C   0  0  0  0  0  0  0  0  0  0  0  0
   -4.6789   -0.6519    8.6859 C   0  0  0  0  0  0  0  0  0  0  0  0
   -4.1245    1.6846    3.9445 O   0  0  0  0  0  0  0  0  0  0  0  0
   -4.3055   -0.0362    1.8027 C   0  0  0  0  0  0  0  0  0  0  0  0
   -3.1686   -0.5327    0.9127 C   0  0  0  0  0  0  0  0  0  0  0  0
   -0.7828   -2.7336    0.7778 O   0  0  0  0  0  0  0  0  0  0  0  0
   -3.1423   -2.4549   -1.9323 C   0  0  0  0  0  0  0  0  0  0  0  0
   -0.7968   -1.2141   -3.2453 O   0  0  0  0  0  0  0  0  0  0  0  0
    3.1503   -0.5023   -2.2883 C   0  0  0  0  0  0  0  0  0  0  0  0
    2.7996   -0.1037   -0.8448 C   0  0  0  0  0  0  0  0  0  0  0  0
    1.4381    0.5881   -0.7563 C   0  0  0  0  0  0  0  0  0  0  0  0
    1.0720    0.9228    0.6067 N   0  0  0  0  0  0  0  0  0  0  0  0
    1.1692   -0.2622    1.4558 C   0  0  0  0  0  0  0  0  0  0  0  0
    2.5428   -0.9123    1.3021 C   0  0  0  0  0  0  0  0  0  0  0  0
    2.8076   -1.2643   -0.0366 O   0  0  0  0  0  0  0  0  0  0  0  0
    3.2709   -2.0653   -4.7445 O   0  0  0  0  0  0  0  0  0  0  0  0
    2.0633   -0.8724   -6.9318 C   0  0  0  0  0  0  0  0  0  0  0  0
    2.6970    0.4748   -7.2927 C   0  0  0  0  0  0  0  0  0  0  0  0
    1.7194    1.6129   -6.9977 C   0  0  0  0  0  0  0  0  0  0  0  0
    0.1258    3.6152   -5.8915 O   0  0  0  0  0  0  0  0  0  0  0  0
   -2.1600    2.5249   -0.2907 C   0  0  0  0  0  0  0  0  0  0  0  0
   -2.5376    3.0460    0.9643 C   0  0  0  0  0  0  0  0  0  0  0  0
   -1.7452    2.8299    2.0878 C   0  0  0  0  0  0  0  0  0  0  0  0
   -0.5758    2.1216    1.9315 C   0  0  0  0  0  0  0  0  0  0  0  0
   -0.1706    1.6011    0.6859 C   0  0  0  0  0  0  0  0  0  0  0  0
   -0.9771    1.7987   -0.4228 C   0  0  0  0  0  0  0  0  0  0  0  0
   -4.2224   -2.6558    0.5727 F   0  0  0  0  0  0  0  0  0  0  0  0
   -6.6483    1.9396    0.5198 H   0  0  0  0  0  0  0  0  0  0  0  0
   -6.8094    0.5309   -0.5442 H   0  0  0  0  0  0  0  0  0  0  0  0
   -5.2930    1.4336   -0.5091 H   0  0  0  0  0  0  0  0  0  0  0  0
   -7.9832    2.3849   -1.5918 H   0  0  0  0  0  0  0  0  0  0  0  0
   -8.1288    2.1206   -3.8923 H   0  0  0  0  0  0  0  0  0  0  0  0
   -6.9394    3.4308   -4.0562 H   0  0  0  0  0  0  0  0  0  0  0  0
   -6.6092    1.8345   -4.7847 H   0  0  0  0  0  0  0  0  0  0  0  0
   -8.1880    6.5712   -2.0982 H   0  0  0  0  0  0  0  0  0  0  0  0
   -6.0639    7.6649   -1.3114 H   0  0  0  0  0  0  0  0  0  0  0  0
   -4.1968    6.1830   -0.6059 H   0  0  0  0  0  0  0  0  0  0  0  0
   -5.5170    4.4052    1.5617 H   0  0  0  0  0  0  0  0  0  0  0  0
   -4.4755    3.5460    2.7180 H   0  0  0  0  0  0  0  0  0  0  0  0
   -4.4530    5.9079    3.2862 H   0  0  0  0  0  0  0  0  0  0  0  0
   -2.8648    5.4885    2.6392 H   0  0  0  0  0  0  0  0  0  0  0  0
   -4.0191    6.3771    1.6424 H   0  0  0  0  0  0  0  0  0  0  0  0
   -2.6898    1.4678   -2.7182 H   0  0  0  0  0  0  0  0  0  0  0  0
   -4.2670    2.2311   -2.9196 H   0  0  0  0  0  0  0  0  0  0  0  0
   -2.9623    5.2344   -2.6563 H   0  0  0  0  0  0  0  0  0  0  0  0
   -2.9317    5.3933   -4.4147 H   0  0  0  0  0  0  0  0  0  0  0  0
   -4.3378    4.6855   -3.6172 H   0  0  0  0  0  0  0  0  0  0  0  0
   -3.9958    2.7874   -5.2682 H   0  0  0  0  0  0  0  0  0  0  0  0
   -2.4531    3.4069   -5.8661 H   0  0  0  0  0  0  0  0  0  0  0  0
   -2.5498    1.7808   -5.1809 H   0  0  0  0  0  0  0  0  0  0  0  0
   -0.7778    4.4494   -4.0199 H   0  0  0  0  0  0  0  0  0  0  0  0
   -0.8723    3.6033   -2.4480 H   0  0  0  0  0  0  0  0  0  0  0  0
    2.0587    1.6045   -4.8591 H   0  0  0  0  0  0  0  0  0  0  0  0
   -0.0038    0.0244   -4.6395 H   0  0  0  0  0  0  0  0  0  0  0  0
    1.2614   -0.0120   -3.1943 H   0  0  0  0  0  0  0  0  0  0  0  0
    1.7167   -2.5829   -1.9265 H   0  0  0  0  0  0  0  0  0  0  0  0
   -0.0758   -3.5183   -1.0634 H   0  0  0  0  0  0  0  0  0  0  0  0
   -1.8078   -4.0847   -3.5155 H   0  0  0  0  0  0  0  0  0  0  0  0
   -0.8471   -5.8956   -1.2465 H   0  0  0  0  0  0  0  0  0  0  0  0
   -2.4912   -5.2851   -1.4028 H   0  0  0  0  0  0  0  0  0  0  0  0
   -1.8451   -6.3903   -2.6152 H   0  0  0  0  0  0  0  0  0  0  0  0
    0.9959   -5.0615   -2.8069 H   0  0  0  0  0  0  0  0  0  0  0  0
    0.0064   -5.6686   -4.1314 H   0  0  0  0  0  0  0  0  0  0  0  0
    0.5742   -4.0032   -4.1568 H   0  0  0  0  0  0  0  0  0  0  0  0
   -2.8517   -3.5331    2.5733 H   0  0  0  0  0  0  0  0  0  0  0  0
   -1.8867   -2.0727    2.8147 H   0  0  0  0  0  0  0  0  0  0  0  0
   -4.9297   -2.3311    3.0592 H   0  0  0  0  0  0  0  0  0  0  0  0
   -3.7924   -2.0853    4.4064 H   0  0  0  0  0  0  0  0  0  0  0  0
   -1.2584   -3.1443    7.1321 H   0  0  0  0  0  0  0  0  0  0  0  0
   -1.5618   -1.5891    6.3460 H   0  0  0  0  0  0  0  0  0  0  0  0
   -0.5912   -1.6599    7.8362 H   0  0  0  0  0  0  0  0  0  0  0  0
   -3.4941   -2.5613    9.8949 H   0  0  0  0  0  0  0  0  0  0  0  0
   -2.2167   -3.5855    9.2471 H   0  0  0  0  0  0  0  0  0  0  0  0
   -1.7948   -2.0361    9.9942 H   0  0  0  0  0  0  0  0  0  0  0  0
   -2.2544    0.2633    9.7052 H   0  0  0  0  0  0  0  0  0  0  0  0
   -1.4726    0.5584    8.1421 H   0  0  0  0  0  0  0  0  0  0  0  0
   -2.9445    1.4290    8.5702 H   0  0  0  0  0  0  0  0  0  0  0  0
   -4.5916   -0.6427    9.7691 H   0  0  0  0  0  0  0  0  0  0  0  0
   -5.2376    0.2299    8.3808 H   0  0  0  0  0  0  0  0  0  0  0  0
   -5.2267   -1.5370    8.3730 H   0  0  0  0  0  0  0  0  0  0  0  0
   -5.2572   -0.4509    1.4510 H   0  0  0  0  0  0  0  0  0  0  0  0
   -4.3535    1.0527    1.7806 H   0  0  0  0  0  0  0  0  0  0  0  0
   -2.2248   -0.0941    1.2399 H   0  0  0  0  0  0  0  0  0  0  0  0
   -3.3474   -0.2167   -0.1146 H   0  0  0  0  0  0  0  0  0  0  0  0
   -3.7902   -1.7288   -1.4547 H   0  0  0  0  0  0  0  0  0  0  0  0
   -2.8182   -2.0412   -2.8853 H   0  0  0  0  0  0  0  0  0  0  0  0
   -3.7175   -3.3675   -2.1024 H   0  0  0  0  0  0  0  0  0  0  0  0
    3.8342   -1.3521   -2.2557 H   0  0  0  0  0  0  0  0  0  0  0  0
    3.6653    0.3269   -2.7760 H   0  0  0  0  0  0  0  0  0  0  0  0
    3.5733    0.5861   -0.4643 H   0  0  0  0  0  0  0  0  0  0  0  0
    1.4696    1.5116   -1.3399 H   0  0  0  0  0  0  0  0  0  0  0  0
    0.6822   -0.0931   -1.1667 H   0  0  0  0  0  0  0  0  0  0  0  0
    1.0238    0.0235    2.4975 H   0  0  0  0  0  0  0  0  0  0  0  0
    0.4097   -1.0097    1.1818 H   0  0  0  0  0  0  0  0  0  0  0  0
    3.3244   -0.2250    1.6614 H   0  0  0  0  0  0  0  0  0  0  0  0
    2.5793   -1.8402    1.8744 H   0  0  0  0  0  0  0  0  0  0  0  0
    2.7863   -1.6845   -7.0037 H   0  0  0  0  0  0  0  0  0  0  0  0
    1.2022   -1.0747   -7.5715 H   0  0  0  0  0  0  0  0  0  0  0  0
    3.6046    0.6053   -6.6982 H   0  0  0  0  0  0  0  0  0  0  0  0
    2.9760    0.4816   -8.3461 H   0  0  0  0  0  0  0  0  0  0  0  0
    0.8615    1.5507   -7.6678 H   0  0  0  0  0  0  0  0  0  0  0  0
    2.1958    2.5822   -7.1420 H   0  0  0  0  0  0  0  0  0  0  0  0
   -2.0375    3.1937    3.0598 H   0  0  0  0  0  0  0  0  0  0  0  0
    0.0622    1.9689    2.7883 H   0  0  0  0  0  0  0  0  0  0  0  0
   -0.7395    1.4019   -1.3944 H   0  0  0  0  0  0  0  0  0  0  0  0
  1  2  1  0  0  0  0
  2  3  1  0  0  0  0
  2  5  1  0  0  0  0
  3  4  1  0  0  0  0
  5  6  2  0  0  0  0
  5 10  1  0  0  0  0
  6  7  1  0  0  0  0
  7  8  2  0  0  0  0
  8  9  1  0  0  0  0
  9 10  2  0  0  0  0
 10 11  1  0  0  0  0
 11 12  1  0  0  0  0
 11 15  2  0  0  0  0
 12 13  1  0  0  0  0
 12 68  1  0  0  0  0
 13 14  1  0  0  0  0
 15 16  1  0  0  0  0
 15 67  1  0  0  0  0
 16 17  1  0  0  0  0
 17 18  1  0  0  0  0
 17 19  1  0  0  0  0
 17 20  1  0  0  0  0
 20 21  1  0  0  0  0
 21 22  1  0  0  0  0
 22 23  1  0  0  0  0
 22 66  2  0  0  0  0
 23 24  1  0  0  0  0
 23 65  1  0  0  0  0
 24 25  1  0  0  0  0
 25 26  1  0  0  0  0
 25 63  1  0  0  0  0
 26 27  1  0  0  0  0
 26 62  2  0  0  0  0
 27 28  1  0  0  0  0
 27 55  1  0  0  0  0
 28 29  1  0  0  0  0
 29 30  1  0  0  0  0
 29 54  2  0  0  0  0
 30 31  1  0  0  0  0
 30 34  1  0  0  0  0
 31 32  1  0  0  0  0
 31 33  1  0  0  0  0
 34 35  1  0  0  0  0
 34 53  1  0  0  0  0
 35 36  1  0  0  0  0
 35 52  2  0  0  0  0
 36 37  1  0  0  0  0
 36 51  1  0  0  0  0
 36 73  1  0  0  0  0
 37 38  1  0  0  0  0
 38 39  1  0  0  0  0
 39 40  1  0  0  0  0
 39 50  1  0  0  0  0
 40 41  1  0  0  0  0
 40 49  2  0  0  0  0
 42 43  1  0  0  0  0
 43 44  1  0  0  0  0
 43 47  1  0  0  0  0
 43 48  1  0  0  0  0
 44 45  1  0  0  0  0
 44 46  1  0  0  0  0
 50 51  1  0  0  0  0
 55 56  1  0  0  0  0
 56 57  1  0  0  0  0
 56 61  1  0  0  0  0
 57 58  1  0  0  0  0
 58 59  1  0  0  0  0
 58 71  1  0  0  0  0
 59 60  1  0  0  0  0
 60 61  1  0  0  0  0
 63 64  1  0  0  0  0
 64 65  1  0  0  0  0
 67 68  2  0  0  0  0
 67 72  1  0  0  0  0
 68 69  1  0  0  0  0
 69 70  2  0  0  0  0
 70 71  1  0  0  0  0
 71 72  2  0  0  0  0
 41 42  3  0  0  0  0
  1 74  1  0  0  0  0
  1 75  1  0  0  0  0
  1 76  1  0  0  0  0
  2 77  1  0  0  0  0
  4 78  1  0  0  0  0
  4 79  1  0  0  0  0
  4 80  1  0  0  0  0
  7 81  1  0  0  0  0
  8 82  1  0  0  0  0
  9 83  1  0  0  0  0
 13 84  1  0  0  0  0
 13 85  1  0  0  0  0
 14 86  1  0  0  0  0
 14 87  1  0  0  0  0
 14 88  1  0  0  0  0
 16 89  1  0  0  0  0
 16 90  1  0  0  0  0
 18 91  1  0  0  0  0
 18 92  1  0  0  0  0
 18 93  1  0  0  0  0
 19 94  1  0  0  0  0
 19 95  1  0  0  0  0
 19 96  1  0  0  0  0
 20 97  1  0  0  0  0
 20 98  1  0  0  0  0
 23 99  1  0  0  0  0
 24100  1  0  0  0  0
 27101  1  0  0  0  0
 28102  1  0  0  0  0
 30103  1  0  0  0  0
 31104  1  0  0  0  0
 32105  1  0  0  0  0
 32106  1  0  0  0  0
 32107  1  0  0  0  0
 33108  1  0  0  0  0
 33109  1  0  0  0  0
 33110  1  0  0  0  0
 37111  1  0  0  0  0
 37112  1  0  0  0  0
 38113  1  0  0  0  0
 38114  1  0  0  0  0
 45115  1  0  0  0  0
 45116  1  0  0  0  0
 45117  1  0  0  0  0
 46118  1  0  0  0  0
 46119  1  0  0  0  0
 46120  1  0  0  0  0
 47121  1  0  0  0  0
 47122  1  0  0  0  0
 47123  1  0  0  0  0
 48124  1  0  0  0  0
 48125  1  0  0  0  0
 48126  1  0  0  0  0
 50127  1  0  0  0  0
 50128  1  0  0  0  0
 51129  1  0  0  0  0
 51130  1  0  0  0  0
 53131  1  0  0  0  0
 53132  1  0  0  0  0
 53133  1  0  0  0  0
 55134  1  0  0  0  0
 55135  1  0  0  0  0
 56136  1  0  0  0  0
 57137  1  0  0  0  0
 57138  1  0  0  0  0
 59139  1  0  0  0  0
 59140  1  0  0  0  0
 60141  1  0  0  0  0
 60142  1  0  0  0  0
 63143  1  0  0  0  0
 63144  1  0  0  0  0
 64145  1  0  0  0  0
 64146  1  0  0  0  0
 65147  1  0  0  0  0
 65148  1  0  0  0  0
 69149  1  0  0  0  0
 70150  1  0  0  0  0
 72151  1  0  0  0  0
M  END
$$$$
