mol_bioactive_2
     RDKit          3D

151157  0  0  0  0  0  0  0  0999 V2000
    2.3449    7.2080   -8.1232 C   0  0  0  0  0  0  0  0  0  0  0  0
    2.1356    5.7553   -7.6844 C   0  0  2  0  0  0  0  0  0  0  0  0
    3.2766    4.9644   -8.0492 O   0  0  0  0  0  0  0  0  0  0  0  0
    4.3409    5.0552   -7.1156 C   0  0  0  0  0  0  0  0  0  0  0  0
    0.8817    5.1335   -8.3009 C   0  0  0  0  0  0  0  0  0  0  0  0
    0.4798    5.6208   -9.5103 N   0  0  0  0  0  0  0  0  0  0  0  0
   -0.6156    5.0816  -10.0816 C   0  0  0  0  0  0  0  0  0  0  0  0
   -1.3668    4.0787   -9.5007 C   0  0  0  0  0  0  0  0  0  0  0  0
   -0.9662    3.5904   -8.2630 C   0  0  0  0  0  0  0  0  0  0  0  0
    0.1777    4.1015   -7.6457 C   0  0  0  0  0  0  0  0  0  0  0  0
    0.6018    3.5870   -6.3384 C   0  0  0  0  0  0  0  0  0  0  0  0
    0.0901    4.0519   -5.1438 N   0  0  0  0  0  0  0  0  0  0  0  0
   -1.1343    4.8250   -4.9824 C   0  0  0  0  0  0  0  0  0  0  0  0
   -0.9035    6.3283   -4.9964 C   0  0  0  0  0  0  0  0  0  0  0  0
    1.6394    2.7057   -6.0347 C   0  0  0  0  0  0  0  0  0  0  0  0
    2.4446    1.8732   -7.0091 C   0  0  0  0  0  0  0  0  0  0  0  0
    1.9000    0.4429   -7.3298 C   0  0  0  0  0  0  0  0  0  0  0  0
    0.4446    0.4803   -7.8161 C   0  0  0  0  0  0  0  0  0  0  0  0
    2.7601   -0.1232   -8.4878 C   0  0  0  0  0  0  0  0  0  0  0  0
    1.9762   -0.4893   -6.1101 C   0  0  0  0  0  0  0  0  0  0  0  0
    3.3226   -0.9678   -5.9274 O   0  0  0  0  0  0  0  0  0  0  0  0
    3.7836   -1.1511   -4.6657 C   0  0  0  0  0  0  0  0  0  0  0  0
    5.2508   -1.5691   -4.6719 C   0  0  1  0  0  0  0  0  0  0  0  0
    5.5408   -2.4552   -3.5339 N   0  0  0  0  0  0  0  0  0  0  0  0
    6.9489   -2.5805   -3.3876 N   0  0  0  0  0  0  0  0  0  0  0  0
    7.7173   -1.6896   -2.6255 C   0  0  0  0  0  0  0  0  0  0  0  0
    6.9868   -0.7857   -1.6110 C   0  0  1  0  0  0  0  0  0  0  0  0
    7.2388   -1.3352   -0.2835 N   0  0  0  0  0  0  0  0  0  0  0  0
    6.3381   -2.1679    0.3420 C   0  0  0  0  0  0  0  0  0  0  0  0
    6.8112   -2.6681    1.7326 C   0  0  2  0  0  0  0  0  0  0  0  0
    7.8550   -3.8260    1.6707 C   0  0  0  0  0  0  0  0  0  0  0  0
    8.4689   -4.0558    3.0595 C   0  0  0  0  0  0  0  0  0  0  0  0
    8.9944   -3.5954    0.6750 C   0  0  0  0  0  0  0  0  0  0  0  0
    5.6788   -3.0381    2.6164 N   0  0  0  0  0  0  0  0  0  0  0  0
    5.2775   -2.1387    3.6054 C   0  0  0  0  0  0  0  0  0  0  0  0
    4.4031   -2.6865    4.7606 C   0  0  0  0  0  0  0  0  0  0  0  0
    5.3026   -3.6094    5.6040 C   0  0  0  0  0  0  0  0  0  0  0  0
    4.6364   -4.0108    6.9099 C   0  0  0  0  0  0  0  0  0  0  0  0
    4.2112   -2.8172    7.6172 N   0  0  0  0  0  0  0  0  0  0  0  0
    5.1427   -2.2115    8.4647 C   0  0  0  0  0  0  0  0  0  0  0  0
    4.8480   -0.9022    8.9985 C   0  0  0  0  0  0  0  0  0  0  0  0
    4.6851    0.2201    9.3887 C   0  0  0  0  0  0  0  0  0  0  0  0
    4.6540    1.6432    9.7994 C   0  0  0  0  0  0  0  0  0  0  0  0
    5.7831    2.4265    9.2230 N   0  0  0  0  0  0  0  0  0  0  0  0
    5.9107    2.3128    7.7638 C   0  0  0  0  0  0  0  0  0  0  0  0
    7.0789    2.1449    9.8460 C   0  0  0  0  0  0  0  0  0  0  0  0
    4.6560    1.7082   11.3436 C   0  0  0  0  0  0  0  0  0  0  0  0
    3.3267    2.2829    9.3287 C   0  0  0  0  0  0  0  0  0  0  0  0
    6.2435   -2.6850    8.7076 O   0  0  0  0  0  0  0  0  0  0  0  0
    3.2059   -2.0456    6.8926 C   0  0  0  0  0  0  0  0  0  0  0  0
    3.8150   -1.5320    5.5912 C   0  0  0  0  0  0  0  0  0  0  0  0
    5.7277   -0.9900    3.6419 O   0  0  0  0  0  0  0  0  0  0  0  0
    4.7966   -4.1212    2.1916 C   0  0  0  0  0  0  0  0  0  0  0  0
    5.2827   -2.5027   -0.1888 O   0  0  0  0  0  0  0  0  0  0  0  0
    7.4772    0.6721   -1.7354 C   0  0  0  0  0  0  0  0  0  0  0  0
    6.4519    1.6846   -1.2018 C   0  0  1  0  0  0  0  0  0  0  0  0
    5.2697    1.8328   -2.1967 C   0  0  0  0  0  0  0  0  0  0  0  0
    4.1432    2.5730   -1.6004 N   0  0  0  0  0  0  0  0  0  0  0  0
    3.7528    1.9972   -0.2923 C   0  0  0  0  0  0  0  0  0  0  0  0
    4.9716    2.0204    0.6380 C   0  0  0  0  0  0  0  0  0  0  0  0
    6.0516    1.2418    0.1019 O   0  0  0  0  0  0  0  0  0  0  0  0
    8.9560   -1.6594   -2.6903 O   0  0  0  0  0  0  0  0  0  0  0  0
    7.5660   -3.3289   -4.4892 C   0  0  0  0  0  0  0  0  0  0  0  0
    7.2460   -2.6293   -5.8153 C   0  0  0  0  0  0  0  0  0  0  0  0
    5.7463   -2.2877   -5.9378 C   0  0  0  0  0  0  0  0  0  0  0  0
    3.1739   -0.8655   -3.6461 O   0  0  0  0  0  0  0  0  0  0  0  0
    1.9289    2.9039   -4.6419 C   0  0  0  0  0  0  0  0  0  0  0  0
    0.9504    3.7430   -4.1160 C   0  0  0  0  0  0  0  0  0  0  0  0
    0.9665    4.1440   -2.7738 C   0  0  0  0  0  0  0  0  0  0  0  0
    2.0403    3.7336   -1.9768 C   0  0  0  0  0  0  0  0  0  0  0  0
    3.0630    2.9013   -2.4481 C   0  0  0  0  0  0  0  0  0  0  0  0
    2.9772    2.4824   -3.7912 C   0  0  0  0  0  0  0  0  0  0  0  0
    3.3357   -3.4240    4.3111 F   0  0  0  0  0  0  0  0  0  0  0  0
    3.2371    7.6360   -7.6572 H   0  0  0  0  0  0  0  0  0  0  0  0
    2.4973    7.2744   -9.2038 H   0  0  0  0  0  0  0  0  0  0  0  0
    1.4831    7.8259   -7.8516 H   0  0  0  0  0  0  0  0  0  0  0  0
    2.0207    5.7709   -6.5930 H   0  0  0  0  0  0  0  0  0  0  0  0
    3.9950    4.8758   -6.0930 H   0  0  0  0  0  0  0  0  0  0  0  0
    5.0791    4.2928   -7.3618 H   0  0  0  0  0  0  0  0  0  0  0  0
    4.8224    6.0340   -7.1806 H   0  0  0  0  0  0  0  0  0  0  0  0
   -0.8842    5.4956  -11.0501 H   0  0  0  0  0  0  0  0  0  0  0  0
   -2.2416    3.6813  -10.0036 H   0  0  0  0  0  0  0  0  0  0  0  0
   -1.5437    2.8051   -7.7851 H   0  0  0  0  0  0  0  0  0  0  0  0
   -1.8349    4.5324   -5.7703 H   0  0  0  0  0  0  0  0  0  0  0  0
   -1.5930    4.5225   -4.0360 H   0  0  0  0  0  0  0  0  0  0  0  0
   -0.3359    6.6421   -4.1117 H   0  0  0  0  0  0  0  0  0  0  0  0
   -0.3487    6.6468   -5.8853 H   0  0  0  0  0  0  0  0  0  0  0  0
   -1.8624    6.8558   -4.9834 H   0  0  0  0  0  0  0  0  0  0  0  0
    2.5243    2.4311   -7.9490 H   0  0  0  0  0  0  0  0  0  0  0  0
    3.4709    1.7822   -6.6296 H   0  0  0  0  0  0  0  0  0  0  0  0
   -0.2407    0.7832   -7.0155 H   0  0  0  0  0  0  0  0  0  0  0  0
    0.3317    1.1620   -8.6663 H   0  0  0  0  0  0  0  0  0  0  0  0
    0.1248   -0.5124   -8.1557 H   0  0  0  0  0  0  0  0  0  0  0  0
    3.8272   -0.1436   -8.2304 H   0  0  0  0  0  0  0  0  0  0  0  0
    2.4517   -1.1463   -8.7343 H   0  0  0  0  0  0  0  0  0  0  0  0
    2.6528    0.4838   -9.3944 H   0  0  0  0  0  0  0  0  0  0  0  0
    1.5698   -0.0139   -5.2073 H   0  0  0  0  0  0  0  0  0  0  0  0
    1.3773   -1.3890   -6.3035 H   0  0  0  0  0  0  0  0  0  0  0  0
    5.8065   -0.6278   -4.5705 H   0  0  0  0  0  0  0  0  0  0  0  0
    5.0603   -2.1943   -2.6635 H   0  0  0  0  0  0  0  0  0  0  0  0
    5.9161   -0.8029   -1.7841 H   0  0  0  0  0  0  0  0  0  0  0  0
    7.9522   -0.8772    0.2782 H   0  0  0  0  0  0  0  0  0  0  0  0
    7.3215   -1.8129    2.1902 H   0  0  0  0  0  0  0  0  0  0  0  0
    7.3554   -4.7523    1.3658 H   0  0  0  0  0  0  0  0  0  0  0  0
    7.7033   -4.3210    3.7940 H   0  0  0  0  0  0  0  0  0  0  0  0
    9.1947   -4.8749    3.0302 H   0  0  0  0  0  0  0  0  0  0  0  0
    8.9874   -3.1554    3.4129 H   0  0  0  0  0  0  0  0  0  0  0  0
    9.7306   -4.4038    0.7373 H   0  0  0  0  0  0  0  0  0  0  0  0
    8.6216   -3.5909   -0.3540 H   0  0  0  0  0  0  0  0  0  0  0  0
    9.5126   -2.6498    0.8678 H   0  0  0  0  0  0  0  0  0  0  0  0
    5.5529   -4.5185    5.0474 H   0  0  0  0  0  0  0  0  0  0  0  0
    6.2494   -3.0975    5.8223 H   0  0  0  0  0  0  0  0  0  0  0  0
    3.7555   -4.6352    6.7258 H   0  0  0  0  0  0  0  0  0  0  0  0
    5.3290   -4.5947    7.5239 H   0  0  0  0  0  0  0  0  0  0  0  0
    6.2393    1.3116    7.4508 H   0  0  0  0  0  0  0  0  0  0  0  0
    4.9734    2.5483    7.2461 H   0  0  0  0  0  0  0  0  0  0  0  0
    6.6502    3.0359    7.3905 H   0  0  0  0  0  0  0  0  0  0  0  0
    7.0797    2.4368   10.9051 H   0  0  0  0  0  0  0  0  0  0  0  0
    7.3602    1.0849    9.7694 H   0  0  0  0  0  0  0  0  0  0  0  0
    7.8762    2.7406    9.3771 H   0  0  0  0  0  0  0  0  0  0  0  0
    5.4025    1.0290   11.7882 H   0  0  0  0  0  0  0  0  0  0  0  0
    4.8706    2.7287   11.6963 H   0  0  0  0  0  0  0  0  0  0  0  0
    3.6791    1.4222   11.7658 H   0  0  0  0  0  0  0  0  0  0  0  0
    2.4700    1.9405    9.9258 H   0  0  0  0  0  0  0  0  0  0  0  0
    3.3732    3.3769    9.4193 H   0  0  0  0  0  0  0  0  0  0  0  0
    3.0902    2.0430    8.2843 H   0  0  0  0  0  0  0  0  0  0  0  0
    2.3535   -2.7053    6.6886 H   0  0  0  0  0  0  0  0  0  0  0  0
    2.8353   -1.2132    7.4982 H   0  0  0  0  0  0  0  0  0  0  0  0
    4.5935   -0.7954    5.8319 H   0  0  0  0  0  0  0  0  0  0  0  0
    3.0426   -1.0105    5.0090 H   0  0  0  0  0  0  0  0  0  0  0  0
    4.6558   -4.8288    3.0117 H   0  0  0  0  0  0  0  0  0  0  0  0
    3.8274   -3.7012    1.9098 H   0  0  0  0  0  0  0  0  0  0  0  0
    5.2098   -4.6704    1.3412 H   0  0  0  0  0  0  0  0  0  0  0  0
    8.4163    0.7889   -1.1773 H   0  0  0  0  0  0  0  0  0  0  0  0
    7.7004    0.9092   -2.7821 H   0  0  0  0  0  0  0  0  0  0  0  0
    6.9377    2.6628   -1.0828 H   0  0  0  0  0  0  0  0  0  0  0  0
    5.6423    2.3561   -3.0879 H   0  0  0  0  0  0  0  0  0  0  0  0
    4.9119    0.8476   -2.5043 H   0  0  0  0  0  0  0  0  0  0  0  0
    2.9477    2.5531    0.1949 H   0  0  0  0  0  0  0  0  0  0  0  0
    3.4233    0.9630   -0.4372 H   0  0  0  0  0  0  0  0  0  0  0  0
    5.3251    3.0449    0.8093 H   0  0  0  0  0  0  0  0  0  0  0  0
    4.7074    1.5867    1.6069 H   0  0  0  0  0  0  0  0  0  0  0  0
    8.6484   -3.4102   -4.3525 H   0  0  0  0  0  0  0  0  0  0  0  0
    7.1485   -4.3412   -4.4763 H   0  0  0  0  0  0  0  0  0  0  0  0
    7.8161   -1.6923   -5.8711 H   0  0  0  0  0  0  0  0  0  0  0  0
    7.5640   -3.2530   -6.6582 H   0  0  0  0  0  0  0  0  0  0  0  0
    5.1781   -3.2152   -6.0941 H   0  0  0  0  0  0  0  0  0  0  0  0
    5.5969   -1.6696   -6.8287 H   0  0  0  0  0  0  0  0  0  0  0  0
    0.2044    4.8017   -2.3649 H   0  0  0  0  0  0  0  0  0  0  0  0
    2.0834    4.1233   -0.9610 H   0  0  0  0  0  0  0  0  0  0  0  0
    3.7367    1.8391   -4.2196 H   0  0  0  0  0  0  0  0  0  0  0  0
  1  2  1  0
  2  3  1  0
  2  5  1  0
  3  4  1  0
  5  6  2  0
  5 10  1  0
  6  7  1  0
  7  8  2  0
  8  9  1  0
  9 10  2  0
 10 11  1  0
 11 12  1  0
 11 15  2  0
 12 13  1  0
 12 68  1  0
 13 14  1  0
 15 16  1  0
 15 67  1  0
 16 17  1  0
 17 18  1  0
 17 19  1  0
 17 20  1  0
 20 21  1  0
 21 22  1  0
 22 23  1  0
 22 66  2  0
 23 24  1  0
 23 65  1  0
 24 25  1  0
 25 26  1  0
 25 63  1  0
 26 27  1  0
 26 62  2  0
 27 28  1  0
 27 55  1  0
 28 29  1  0
 29 30  1  0
 29 54  2  0
 30 31  1  0
 30 34  1  0
 31 32  1  0
 31 33  1  0
 34 35  1  0
 34 53  1  0
 35 36  1  0
 35 52  2  0
 36 37  1  0
 36 51  1  0
 36 73  1  0
 37 38  1  0
 38 39  1  0
 39 40  1  0
 39 50  1  0
 40 41  1  0
 40 49  2  0
 42 43  1  0
 43 44  1  0
 43 47  1  0
 43 48  1  0
 44 45  1  0
 44 46  1  0
 50 51  1  0
 55 56  1  0
 56 57  1  0
 56 61  1  0
 57 58  1  0
 58 59  1  0
 58 71  1  0
 59 60  1  0
 60 61  1  0
 63 64  1  0
 64 65  1  0
 67 68  2  0
 67 72  1  0
 68 69  1  0
 69 70  2  0
 70 71  1  0
 71 72  2  0
  1 74  1  0
  1 75  1  0
  1 76  1  0
  2 77  1  1
  4 78  1  0
  4 79  1  0
  4 80  1  0
  7 81  1  0
  8 82  1  0
  9 83  1  0
 13 84  1  0
 13 85  1  0
 14 86  1  0
 14 87  1  0
 14 88  1  0
 16 89  1  0
 16 90  1  0
 18 91  1  0
 18 92  1  0
 18 93  1  0
 19 94  1  0
 19 95  1  0
 19 96  1  0
 20 97  1  0
 20 98  1  0
 23 99  1  1
 24100  1  0
 27101  1  6
 28102  1  0
 30103  1  1
 31104  1  0
 32105  1  0
 32106  1  0
 32107  1  0
 33108  1  0
 33109  1  0
 33110  1  0
 37111  1  0
 37112  1  0
 38113  1  0
 38114  1  0
 45115  1  0
 45116  1  0
 45117  1  0
 46118  1  0
 46119  1  0
 46120  1  0
 47121  1  0
 47122  1  0
 47123  1  0
 48124  1  0
 48125  1  0
 48126  1  0
 50127  1  0
 50128  1  0
 51129  1  0
 51130  1  0
 53131  1  0
 53132  1  0
 53133  1  0
 55134  1  0
 55135  1  0
 56136  1  1
 57137  1  0
 57138  1  0
 59139  1  0
 59140  1  0
 60141  1  0
 60142  1  0
 63143  1  0
 63144  1  0
 64145  1  0
 64146  1  0
 65147  1  0
 65148  1  0
 69149  1  0
 70150  1  0
 72151  1  0
 41 42  3  0
M  END
$$$$
