 xtb: 6.7.1 (edcfbbe)
          08182500143D

151157  0     0  0            999 V2000
    1.6738    6.5822   -8.3813 C   0  0  0  0  0  0  0  0  0  0  0  0
    1.7516    5.1296   -7.9080 C   0  0  0  0  0  0  0  0  0  0  0  0
    2.6807    4.3580   -8.6549 O   0  0  0  0  0  0  0  0  0  0  0  0
    4.0292    4.6537   -8.4008 C   0  0  0  0  0  0  0  0  0  0  0  0
    0.4086    4.4491   -8.0829 C   0  0  0  0  0  0  0  0  0  0  0  0
   -0.2227    4.7013   -9.2179 N   0  0  0  0  0  0  0  0  0  0  0  0
   -1.3963    4.1465   -9.4475 C   0  0  0  0  0  0  0  0  0  0  0  0
   -2.0274    3.3091   -8.5401 C   0  0  0  0  0  0  0  0  0  0  0  0
   -1.3797    3.0444   -7.3476 C   0  0  0  0  0  0  0  0  0  0  0  0
   -0.1275    3.6073   -7.0995 C   0  0  0  0  0  0  0  0  0  0  0  0
    0.5525    3.3347   -5.8285 C   0  0  0  0  0  0  0  0  0  0  0  0
    0.0351    3.8189   -4.6457 N   0  0  0  0  0  0  0  0  0  0  0  0
   -1.0372    4.7692   -4.5182 C   0  0  0  0  0  0  0  0  0  0  0  0
   -0.5203    6.2068   -4.5685 C   0  0  0  0  0  0  0  0  0  0  0  0
    1.6845    2.5917   -5.5849 C   0  0  0  0  0  0  0  0  0  0  0  0
    2.4938    1.8632   -6.6087 C   0  0  0  0  0  0  0  0  0  0  0  0
    2.1126    0.3792   -6.8226 C   0  0  0  0  0  0  0  0  0  0  0  0
    0.5978    0.2096   -6.9297 C   0  0  0  0  0  0  0  0  0  0  0  0
    2.7716   -0.1113   -8.1140 C   0  0  0  0  0  0  0  0  0  0  0  0
    2.6055   -0.4768   -5.6516 C   0  0  0  0  0  0  0  0  0  0  0  0
    4.0369   -0.4538   -5.6087 O   0  0  0  0  0  0  0  0  0  0  0  0
    4.6084   -1.0039   -4.5496 C   0  0  0  0  0  0  0  0  0  0  0  0
    6.1238   -0.8627   -4.5732 C   0  0  0  0  0  0  0  0  0  0  0  0
    6.7493   -1.9560   -3.8496 N   0  0  0  0  0  0  0  0  0  0  0  0
    8.0709   -1.6209   -3.5500 N   0  0  0  0  0  0  0  0  0  0  0  0
    8.4809   -0.9248   -2.4654 C   0  0  0  0  0  0  0  0  0  0  0  0
    7.4005   -0.6188   -1.4078 C   0  0  0  0  0  0  0  0  0  0  0  0
    7.5710   -1.4682   -0.2496 N   0  0  0  0  0  0  0  0  0  0  0  0
    7.0001   -2.6794   -0.2051 C   0  0  0  0  0  0  0  0  0  0  0  0
    7.0974   -3.3652    1.1585 C   0  0  0  0  0  0  0  0  0  0  0  0
    7.2706   -4.8853    1.0133 C   0  0  0  0  0  0  0  0  0  0  0  0
    7.1449   -5.5759    2.3677 C   0  0  0  0  0  0  0  0  0  0  0  0
    8.6384   -5.1593    0.3913 C   0  0  0  0  0  0  0  0  0  0  0  0
    5.9061   -2.9908    1.9180 N   0  0  0  0  0  0  0  0  0  0  0  0
    6.0902   -2.2710    3.0386 C   0  0  0  0  0  0  0  0  0  0  0  0
    4.8810   -1.9319    3.9298 C   0  0  0  0  0  0  0  0  0  0  0  0
    4.6090   -3.1188    4.8620 C   0  0  0  0  0  0  0  0  0  0  0  0
    3.4847   -2.7751    5.8399 C   0  0  0  0  0  0  0  0  0  0  0  0
    3.7887   -1.5629    6.5605 N   0  0  0  0  0  0  0  0  0  0  0  0
    3.8779   -1.5799    7.9142 C   0  0  0  0  0  0  0  0  0  0  0  0
    4.1364   -0.2983    8.5254 C   0  0  0  0  0  0  0  0  0  0  0  0
    4.2669    0.6849    9.2091 C   0  0  0  0  0  0  0  0  0  0  0  0
    4.5319    1.9370    9.9170 C   0  0  0  0  0  0  0  0  0  0  0  0
    5.8390    2.5015    9.5395 N   0  0  0  0  0  0  0  0  0  0  0  0
    5.9544    2.8275    8.1315 C   0  0  0  0  0  0  0  0  0  0  0  0
    6.9672    1.6870    9.9541 C   0  0  0  0  0  0  0  0  0  0  0  0
    4.4907    1.6634   11.4284 C   0  0  0  0  0  0  0  0  0  0  0  0
    3.4149    2.9400    9.5801 C   0  0  0  0  0  0  0  0  0  0  0  0
    3.7240   -2.5884    8.5791 O   0  0  0  0  0  0  0  0  0  0  0  0
    4.0162   -0.4114    5.7262 C   0  0  0  0  0  0  0  0  0  0  0  0
    5.1708   -0.6770    4.7574 C   0  0  0  0  0  0  0  0  0  0  0  0
    7.1997   -1.9510    3.4392 O   0  0  0  0  0  0  0  0  0  0  0  0
    4.6276   -3.2960    1.3110 C   0  0  0  0  0  0  0  0  0  0  0  0
    6.4129   -3.1700   -1.1544 O   0  0  0  0  0  0  0  0  0  0  0  0
    7.4596    0.8598   -1.0230 C   0  0  0  0  0  0  0  0  0  0  0  0
    6.1146    1.3778   -0.5052 C   0  0  0  0  0  0  0  0  0  0  0  0
    5.0643    1.4660   -1.6241 C   0  0  0  0  0  0  0  0  0  0  0  0
    3.8212    1.9556   -1.0686 N   0  0  0  0  0  0  0  0  0  0  0  0
    3.3691    1.0516   -0.0237 C   0  0  0  0  0  0  0  0  0  0  0  0
    4.4429    0.9772    1.0592 C   0  0  0  0  0  0  0  0  0  0  0  0
    5.6726    0.5304    0.5369 O   0  0  0  0  0  0  0  0  0  0  0  0
    9.6393   -0.5851   -2.3095 O   0  0  0  0  0  0  0  0  0  0  0  0
    8.8645   -1.6592   -4.7643 C   0  0  0  0  0  0  0  0  0  0  0  0
    8.2934   -0.6454   -5.7657 C   0  0  0  0  0  0  0  0  0  0  0  0
    6.7849   -0.8454   -5.9545 C   0  0  0  0  0  0  0  0  0  0  0  0
    4.0124   -1.4934   -3.6242 O   0  0  0  0  0  0  0  0  0  0  0  0
    1.9084    2.6531   -4.1757 C   0  0  0  0  0  0  0  0  0  0  0  0
    0.8641    3.4330   -3.6276 C   0  0  0  0  0  0  0  0  0  0  0  0
    0.8010    3.6919   -2.2631 C   0  0  0  0  0  0  0  0  0  0  0  0
    1.7835    3.1664   -1.4595 C   0  0  0  0  0  0  0  0  0  0  0  0
    2.8374    2.3903   -1.9791 C   0  0  0  0  0  0  0  0  0  0  0  0
    2.9019    2.1407   -3.3386 C   0  0  0  0  0  0  0  0  0  0  0  0
    3.7305   -1.6735    3.1873 F   0  0  0  0  0  0  0  0  0  0  0  0
    2.6135    7.0984   -8.2025 H   0  0  0  0  0  0  0  0  0  0  0  0
    1.4440    6.5955   -9.4423 H   0  0  0  0  0  0  0  0  0  0  0  0
    0.8842    7.1010   -7.8438 H   0  0  0  0  0  0  0  0  0  0  0  0
    2.0389    5.0977   -6.8425 H   0  0  0  0  0  0  0  0  0  0  0  0
    4.2460    4.6158   -7.3256 H   0  0  0  0  0  0  0  0  0  0  0  0
    4.6081    3.8873   -8.9137 H   0  0  0  0  0  0  0  0  0  0  0  0
    4.3169    5.6365   -8.7881 H   0  0  0  0  0  0  0  0  0  0  0  0
   -1.8512    4.3935  -10.3977 H   0  0  0  0  0  0  0  0  0  0  0  0
   -2.9925    2.8790   -8.7581 H   0  0  0  0  0  0  0  0  0  0  0  0
   -1.8278    2.3933   -6.6094 H   0  0  0  0  0  0  0  0  0  0  0  0
   -1.7532    4.6077   -5.3282 H   0  0  0  0  0  0  0  0  0  0  0  0
   -1.5455    4.5870   -3.5673 H   0  0  0  0  0  0  0  0  0  0  0  0
    0.2108    6.3712   -3.7804 H   0  0  0  0  0  0  0  0  0  0  0  0
   -0.0452    6.3991   -5.5280 H   0  0  0  0  0  0  0  0  0  0  0  0
   -1.3416    6.9062   -4.4385 H   0  0  0  0  0  0  0  0  0  0  0  0
    2.3791    2.3744   -7.5655 H   0  0  0  0  0  0  0  0  0  0  0  0
    3.5487    1.8999   -6.3277 H   0  0  0  0  0  0  0  0  0  0  0  0
    0.1117    0.4998   -6.0015 H   0  0  0  0  0  0  0  0  0  0  0  0
    0.2125    0.8293   -7.7349 H   0  0  0  0  0  0  0  0  0  0  0  0
    0.3457   -0.8274   -7.1406 H   0  0  0  0  0  0  0  0  0  0  0  0
    3.8503    0.0063   -8.0577 H   0  0  0  0  0  0  0  0  0  0  0  0
    2.5484   -1.1630   -8.2801 H   0  0  0  0  0  0  0  0  0  0  0  0
    2.4029    0.4593   -8.9627 H   0  0  0  0  0  0  0  0  0  0  0  0
    2.2126   -0.1052   -4.6998 H   0  0  0  0  0  0  0  0  0  0  0  0
    2.2831   -1.5171   -5.7698 H   0  0  0  0  0  0  0  0  0  0  0  0
    6.3246    0.1151   -4.0845 H   0  0  0  0  0  0  0  0  0  0  0  0
    6.2393   -2.3221   -3.0471 H   0  0  0  0  0  0  0  0  0  0  0  0
    6.4113   -0.8554   -1.8065 H   0  0  0  0  0  0  0  0  0  0  0  0
    8.0145   -1.0777    0.5664 H   0  0  0  0  0  0  0  0  0  0  0  0
    7.9481   -2.9653    1.7191 H   0  0  0  0  0  0  0  0  0  0  0  0
    6.5042   -5.2689    0.3331 H   0  0  0  0  0  0  0  0  0  0  0  0
    6.1428   -5.4643    2.7741 H   0  0  0  0  0  0  0  0  0  0  0  0
    7.3557   -6.6376    2.2666 H   0  0  0  0  0  0  0  0  0  0  0  0
    7.8516   -5.1484    3.0756 H   0  0  0  0  0  0  0  0  0  0  0  0
    8.7751   -6.2272    0.2408 H   0  0  0  0  0  0  0  0  0  0  0  0
    8.7254   -4.6637   -0.5727 H   0  0  0  0  0  0  0  0  0  0  0  0
    9.4327   -4.7982    1.0413 H   0  0  0  0  0  0  0  0  0  0  0  0
    4.3291   -3.9992    4.2821 H   0  0  0  0  0  0  0  0  0  0  0  0
    5.5295   -3.3372    5.4046 H   0  0  0  0  0  0  0  0  0  0  0  0
    2.5490   -2.6367    5.2840 H   0  0  0  0  0  0  0  0  0  0  0  0
    3.3546   -3.5741    6.5726 H   0  0  0  0  0  0  0  0  0  0  0  0
    5.8937    1.9441    7.4771 H   0  0  0  0  0  0  0  0  0  0  0  0
    5.1830    3.5357    7.8417 H   0  0  0  0  0  0  0  0  0  0  0  0
    6.9207    3.3042    7.9711 H   0  0  0  0  0  0  0  0  0  0  0  0
    7.0115    1.6310   11.0385 H   0  0  0  0  0  0  0  0  0  0  0  0
    6.9352    0.6679    9.5421 H   0  0  0  0  0  0  0  0  0  0  0  0
    7.8809    2.1687    9.6087 H   0  0  0  0  0  0  0  0  0  0  0  0
    5.1023    0.8061   11.6946 H   0  0  0  0  0  0  0  0  0  0  0  0
    4.8414    2.5412   11.9649 H   0  0  0  0  0  0  0  0  0  0  0  0
    3.4692    1.4470   11.7313 H   0  0  0  0  0  0  0  0  0  0  0  0
    2.4889    2.6300   10.0576 H   0  0  0  0  0  0  0  0  0  0  0  0
    3.6940    3.9228    9.9506 H   0  0  0  0  0  0  0  0  0  0  0  0
    3.2320    2.9970    8.5104 H   0  0  0  0  0  0  0  0  0  0  0  0
    3.1050   -0.2006    5.1510 H   0  0  0  0  0  0  0  0  0  0  0  0
    4.2395    0.4516    6.3559 H   0  0  0  0  0  0  0  0  0  0  0  0
    6.1038   -0.8338    5.2977 H   0  0  0  0  0  0  0  0  0  0  0  0
    5.3004    0.1741    4.0872 H   0  0  0  0  0  0  0  0  0  0  0  0
    3.9650   -3.8061    2.0095 H   0  0  0  0  0  0  0  0  0  0  0  0
    4.1361   -2.3888    0.9563 H   0  0  0  0  0  0  0  0  0  0  0  0
    4.7968   -3.9398    0.4527 H   0  0  0  0  0  0  0  0  0  0  0  0
    8.2264    0.9945   -0.2592 H   0  0  0  0  0  0  0  0  0  0  0  0
    7.7528    1.4543   -1.8901 H   0  0  0  0  0  0  0  0  0  0  0  0
    6.2520    2.3966   -0.1012 H   0  0  0  0  0  0  0  0  0  0  0  0
    5.4155    2.1704   -2.3816 H   0  0  0  0  0  0  0  0  0  0  0  0
    4.9244    0.4719   -2.0778 H   0  0  0  0  0  0  0  0  0  0  0  0
    2.4360    1.4135    0.4057 H   0  0  0  0  0  0  0  0  0  0  0  0
    3.2014    0.0404   -0.4326 H   0  0  0  0  0  0  0  0  0  0  0  0
    4.5728    1.9730    1.5111 H   0  0  0  0  0  0  0  0  0  0  0  0
    4.1572    0.2598    1.8278 H   0  0  0  0  0  0  0  0  0  0  0  0
    9.8959   -1.4194   -4.5068 H   0  0  0  0  0  0  0  0  0  0  0  0
    8.8036   -2.6709   -5.1701 H   0  0  0  0  0  0  0  0  0  0  0  0
    8.4794    0.3629   -5.3872 H   0  0  0  0  0  0  0  0  0  0  0  0
    8.8076   -0.7489   -6.7212 H   0  0  0  0  0  0  0  0  0  0  0  0
    6.5951   -1.8033   -6.4394 H   0  0  0  0  0  0  0  0  0  0  0  0
    6.3690   -0.0493   -6.5716 H   0  0  0  0  0  0  0  0  0  0  0  0
    0.0137    4.2966   -1.8385 H   0  0  0  0  0  0  0  0  0  0  0  0
    1.7688    3.3720   -0.4002 H   0  0  0  0  0  0  0  0  0  0  0  0
    3.7055    1.5617   -3.7640 H   0  0  0  0  0  0  0  0  0  0  0  0
  1  2  1  0  0  0  0
  2  3  1  0  0  0  0
  3  4  1  0  0  0  0
  2  5  1  0  0  0  0
  5  6  4  0  0  0  0
  6  7  4  0  0  0  0
  7  8  4  0  0  0  0
  8  9  4  0  0  0  0
  5 10  4  0  0  0  0
  9 10  4  0  0  0  0
 10 11  1  0  0  0  0
 11 12  1  0  0  0  0
 12 13  1  0  0  0  0
 13 14  1  0  0  0  0
 11 15  2  0  0  0  0
 15 16  1  0  0  0  0
 16 17  1  0  0  0  0
 17 18  1  0  0  0  0
 17 19  1  0  0  0  0
 17 20  1  0  0  0  0
 20 21  1  0  0  0  0
 21 22  1  0  0  0  0
 22 23  1  0  0  0  0
 23 24  1  0  0  0  0
 24 25  1  0  0  0  0
 25 26  4  0  0  0  0
 26 27  1  0  0  0  0
 27 28  1  0  0  0  0
 28 29  4  0  0  0  0
 29 30  1  0  0  0  0
 30 31  1  0  0  0  0
 31 32  1  0  0  0  0
 31 33  1  0  0  0  0
 30 34  1  0  0  0  0
 34 35  4  0  0  0  0
 35 36  1  0  0  0  0
 36 37  1  0  0  0  0
 37 38  1  0  0  0  0
 38 39  1  0  0  0  0
 39 40  4  0  0  0  0
 40 41  1  0  0  0  0
 41 42  3  0  0  0  0
 42 43  1  0  0  0  0
 43 44  1  0  0  0  0
 44 45  1  0  0  0  0
 44 46  1  0  0  0  0
 43 47  1  0  0  0  0
 43 48  1  0  0  0  0
 40 49  2  0  0  0  0
 39 50  1  0  0  0  0
 36 51  1  0  0  0  0
 50 51  1  0  0  0  0
 35 52  2  0  0  0  0
 34 53  1  0  0  0  0
 29 54  2  0  0  0  0
 27 55  1  0  0  0  0
 55 56  1  0  0  0  0
 56 57  1  0  0  0  0
 57 58  1  0  0  0  0
 58 59  1  0  0  0  0
 59 60  1  0  0  0  0
 56 61  1  0  0  0  0
 60 61  1  0  0  0  0
 26 62  2  0  0  0  0
 25 63  1  0  0  0  0
 63 64  1  0  0  0  0
 23 65  1  0  0  0  0
 64 65  1  0  0  0  0
 22 66  2  0  0  0  0
 15 67  4  0  0  0  0
 12 68  1  0  0  0  0
 67 68  4  0  0  0  0
 68 69  4  0  0  0  0
 69 70  2  0  0  0  0
 58 71  1  0  0  0  0
 70 71  4  0  0  0  0
 67 72  4  0  0  0  0
 71 72  4  0  0  0  0
 36 73  1  0  0  0  0
  1 74  1  0  0  0  0
  1 75  1  0  0  0  0
  1 76  1  0  0  0  0
  2 77  1  0  0  0  0
  4 78  1  0  0  0  0
  4 79  1  0  0  0  0
  4 80  1  0  0  0  0
  7 81  1  0  0  0  0
  8 82  1  0  0  0  0
  9 83  1  0  0  0  0
 13 84  1  0  0  0  0
 13 85  1  0  0  0  0
 14 86  1  0  0  0  0
 14 87  1  0  0  0  0
 14 88  1  0  0  0  0
 16 89  1  0  0  0  0
 16 90  1  0  0  0  0
 18 91  1  0  0  0  0
 18 92  1  0  0  0  0
 18 93  1  0  0  0  0
 19 94  1  0  0  0  0
 19 95  1  0  0  0  0
 19 96  1  0  0  0  0
 20 97  1  0  0  0  0
 20 98  1  0  0  0  0
 23 99  1  0  0  0  0
 24100  1  0  0  0  0
 27101  1  0  0  0  0
 28102  1  0  0  0  0
 30103  1  0  0  0  0
 31104  1  0  0  0  0
 32105  1  0  0  0  0
 32106  1  0  0  0  0
 32107  1  0  0  0  0
 33108  1  0  0  0  0
 33109  1  0  0  0  0
 33110  1  0  0  0  0
 37111  1  0  0  0  0
 37112  1  0  0  0  0
 38113  1  0  0  0  0
 38114  1  0  0  0  0
 45115  1  0  0  0  0
 45116  1  0  0  0  0
 45117  1  0  0  0  0
 46118  1  0  0  0  0
 46119  1  0  0  0  0
 46120  1  0  0  0  0
 47121  1  0  0  0  0
 47122  1  0  0  0  0
 47123  1  0  0  0  0
 48124  1  0  0  0  0
 48125  1  0  0  0  0
 48126  1  0  0  0  0
 50127  1  0  0  0  0
 50128  1  0  0  0  0
 51129  1  0  0  0  0
 51130  1  0  0  0  0
 53131  1  0  0  0  0
 53132  1  0  0  0  0
 53133  1  0  0  0  0
 55134  1  0  0  0  0
 55135  1  0  0  0  0
 56136  1  0  0  0  0
 57137  1  0  0  0  0
 57138  1  0  0  0  0
 59139  1  0  0  0  0
 59140  1  0  0  0  0
 60141  1  0  0  0  0
 60142  1  0  0  0  0
 63143  1  0  0  0  0
 63144  1  0  0  0  0
 64145  1  0  0  0  0
 64146  1  0  0  0  0
 65147  1  0  0  0  0
 65148  1  0  0  0  0
 69149  1  0  0  0  0
 70150  1  0  0  0  0
 72151  1  0  0  0  0
M  END
$$$$
