 energy: -221.283949105270 gnorm: 0.000311477091 xtb: 6.7.1 (edcfbbe)
          08172521503D

151157  0     0  0            999 V2000
    3.5313    8.0933   -7.0542 C   0  0  0  0  0  0  0  0  0  0  0  0
    3.5632    6.5646   -7.0808 C   0  0  0  0  0  0  0  0  0  0  0  0
    4.7321    6.0266   -7.6844 O   0  0  0  0  0  0  0  0  0  0  0  0
    5.0394    6.4840   -8.9829 C   0  0  0  0  0  0  0  0  0  0  0  0
    2.3114    6.0210   -7.7436 C   0  0  0  0  0  0  0  0  0  0  0  0
    2.0073    6.5357   -8.9272 N   0  0  0  0  0  0  0  0  0  0  0  0
    0.9371    6.1092   -9.5721 C   0  0  0  0  0  0  0  0  0  0  0  0
    0.0842    5.1453   -9.0608 C   0  0  0  0  0  0  0  0  0  0  0  0
    0.3879    4.6049   -7.8243 C   0  0  0  0  0  0  0  0  0  0  0  0
    1.5261    5.0279   -7.1399 C   0  0  0  0  0  0  0  0  0  0  0  0
    1.8437    4.4630   -5.8231 C   0  0  0  0  0  0  0  0  0  0  0  0
    1.0485    4.7470   -4.7340 N   0  0  0  0  0  0  0  0  0  0  0  0
   -0.0939    5.6207   -4.7047 C   0  0  0  0  0  0  0  0  0  0  0  0
   -1.4100    4.8479   -4.6171 C   0  0  0  0  0  0  0  0  0  0  0  0
    2.8746    3.6281   -5.4556 C   0  0  0  0  0  0  0  0  0  0  0  0
    3.9471    3.0967   -6.3505 C   0  0  0  0  0  0  0  0  0  0  0  0
    3.6422    1.7342   -7.0160 C   0  0  0  0  0  0  0  0  0  0  0  0
    4.6702    1.4900   -8.1231 C   0  0  0  0  0  0  0  0  0  0  0  0
    2.2372    1.7121   -7.6160 C   0  0  0  0  0  0  0  0  0  0  0  0
    3.7340    0.6055   -5.9831 C   0  0  0  0  0  0  0  0  0  0  0  0
    5.0871    0.4746   -5.5368 O   0  0  0  0  0  0  0  0  0  0  0  0
    5.3051   -0.3302   -4.5081 C   0  0  0  0  0  0  0  0  0  0  0  0
    6.7731   -0.3460   -4.1063 C   0  0  0  0  0  0  0  0  0  0  0  0
    7.1170   -1.5976   -3.4527 N   0  0  0  0  0  0  0  0  0  0  0  0
    8.3378   -1.4506   -2.7895 N   0  0  0  0  0  0  0  0  0  0  0  0
    8.5044   -0.9362   -1.5487 C   0  0  0  0  0  0  0  0  0  0  0  0
    7.2233   -0.7566   -0.7108 C   0  0  0  0  0  0  0  0  0  0  0  0
    7.1365   -1.8303    0.2519 N   0  0  0  0  0  0  0  0  0  0  0  0
    6.4889   -2.9682   -0.0375 C   0  0  0  0  0  0  0  0  0  0  0  0
    6.3790   -3.9002    1.1731 C   0  0  0  0  0  0  0  0  0  0  0  0
    6.1575   -5.3657    0.7827 C   0  0  0  0  0  0  0  0  0  0  0  0
    5.8248   -6.2078    2.0109 C   0  0  0  0  0  0  0  0  0  0  0  0
    7.4277   -5.8800    0.1069 C   0  0  0  0  0  0  0  0  0  0  0  0
    5.3282   -3.3386    2.0253 N   0  0  0  0  0  0  0  0  0  0  0  0
    5.7410   -2.5667    3.0455 C   0  0  0  0  0  0  0  0  0  0  0  0
    4.7414   -1.9954    4.0615 C   0  0  0  0  0  0  0  0  0  0  0  0
    4.6407   -2.9819    5.2323 C   0  0  0  0  0  0  0  0  0  0  0  0
    3.7844   -2.3871    6.3519 C   0  0  0  0  0  0  0  0  0  0  0  0
    4.2973   -1.0988    6.7501 N   0  0  0  0  0  0  0  0  0  0  0  0
    4.8075   -0.9253    7.9945 C   0  0  0  0  0  0  0  0  0  0  0  0
    5.3292    0.3916    8.2674 C   0  0  0  0  0  0  0  0  0  0  0  0
    5.7654    1.4504    8.6404 C   0  0  0  0  0  0  0  0  0  0  0  0
    6.3764    2.6920    9.1128 C   0  0  0  0  0  0  0  0  0  0  0  0
    7.4899    2.4153   10.0347 N   0  0  0  0  0  0  0  0  0  0  0  0
    8.5851    1.6889    9.4171 C   0  0  0  0  0  0  0  0  0  0  0  0
    7.0763    1.7444   11.2554 C   0  0  0  0  0  0  0  0  0  0  0  0
    6.8832    3.4962    7.9038 C   0  0  0  0  0  0  0  0  0  0  0  0
    5.2976    3.5235    9.8270 C   0  0  0  0  0  0  0  0  0  0  0  0
    4.8126   -1.7997    8.8429 O   0  0  0  0  0  0  0  0  0  0  0  0
    4.3513   -0.1248    5.6901 C   0  0  0  0  0  0  0  0  0  0  0  0
    5.2366   -0.6317    4.5503 C   0  0  0  0  0  0  0  0  0  0  0  0
    6.9298   -2.3784    3.2762 O   0  0  0  0  0  0  0  0  0  0  0  0
    3.9771   -3.3785    1.5051 C   0  0  0  0  0  0  0  0  0  0  0  0
    5.9856   -3.1989   -1.1222 O   0  0  0  0  0  0  0  0  0  0  0  0
    7.2247    0.6133   -0.0299 C   0  0  0  0  0  0  0  0  0  0  0  0
    5.8162    1.1603    0.2194 C   0  0  0  0  0  0  0  0  0  0  0  0
    5.0778    1.4912   -1.0891 C   0  0  0  0  0  0  0  0  0  0  0  0
    3.7578    1.9947   -0.7748 N   0  0  0  0  0  0  0  0  0  0  0  0
    3.0262    0.9950   -0.0155 C   0  0  0  0  0  0  0  0  0  0  0  0
    3.7952    0.7106    1.2718 C   0  0  0  0  0  0  0  0  0  0  0  0
    5.0907    0.2266    0.9964 O   0  0  0  0  0  0  0  0  0  0  0  0
    9.6044   -0.6914   -1.0891 O   0  0  0  0  0  0  0  0  0  0  0  0
    9.4115   -1.3925   -3.7647 C   0  0  0  0  0  0  0  0  0  0  0  0
    9.1915   -0.1799   -4.6780 C   0  0  0  0  0  0  0  0  0  0  0  0
    7.7725   -0.1821   -5.2563 C   0  0  0  0  0  0  0  0  0  0  0  0
    4.4485   -0.9268   -3.9084 O   0  0  0  0  0  0  0  0  0  0  0  0
    2.7205    3.3936   -4.0555 C   0  0  0  0  0  0  0  0  0  0  0  0
    1.5740    4.1103   -3.6432 C   0  0  0  0  0  0  0  0  0  0  0  0
    1.1700    4.1153   -2.3132 C   0  0  0  0  0  0  0  0  0  0  0  0
    1.9110    3.3923   -1.4106 C   0  0  0  0  0  0  0  0  0  0  0  0
    3.0486    2.6554   -1.7952 C   0  0  0  0  0  0  0  0  0  0  0  0
    3.4564    2.6651   -3.1178 C   0  0  0  0  0  0  0  0  0  0  0  0
    3.4631   -1.8111    3.5433 F   0  0  0  0  0  0  0  0  0  0  0  0
    4.4775    8.4753   -6.6791 H   0  0  0  0  0  0  0  0  0  0  0  0
    3.3460    8.4835   -8.0509 H   0  0  0  0  0  0  0  0  0  0  0  0
    2.7318    8.4237   -6.3959 H   0  0  0  0  0  0  0  0  0  0  0  0
    3.6156    6.1800   -6.0557 H   0  0  0  0  0  0  0  0  0  0  0  0
    4.1699    6.4325   -9.6438 H   0  0  0  0  0  0  0  0  0  0  0  0
    5.4198    7.5102   -8.9675 H   0  0  0  0  0  0  0  0  0  0  0  0
    5.8208    5.8201   -9.3507 H   0  0  0  0  0  0  0  0  0  0  0  0
    0.7593    6.5703  -10.5349 H   0  0  0  0  0  0  0  0  0  0  0  0
   -0.7881    4.8278   -9.6103 H   0  0  0  0  0  0  0  0  0  0  0  0
   -0.2436    3.8429   -7.3905 H   0  0  0  0  0  0  0  0  0  0  0  0
   -0.0021    6.2826   -3.8365 H   0  0  0  0  0  0  0  0  0  0  0  0
   -0.0821    6.2375   -5.6075 H   0  0  0  0  0  0  0  0  0  0  0  0
   -1.4145    4.2077   -3.7388 H   0  0  0  0  0  0  0  0  0  0  0  0
   -2.2435    5.5420   -4.5504 H   0  0  0  0  0  0  0  0  0  0  0  0
   -1.5488    4.2236   -5.4957 H   0  0  0  0  0  0  0  0  0  0  0  0
    4.1368    3.8266   -7.1386 H   0  0  0  0  0  0  0  0  0  0  0  0
    4.8676    2.9885   -5.7736 H   0  0  0  0  0  0  0  0  0  0  0  0
    5.6780    1.5260   -7.7195 H   0  0  0  0  0  0  0  0  0  0  0  0
    4.5161    0.5144   -8.5792 H   0  0  0  0  0  0  0  0  0  0  0  0
    4.5775    2.2512   -8.8938 H   0  0  0  0  0  0  0  0  0  0  0  0
    1.4862    1.8261   -6.8384 H   0  0  0  0  0  0  0  0  0  0  0  0
    2.1260    2.5228   -8.3313 H   0  0  0  0  0  0  0  0  0  0  0  0
    2.0590    0.7708   -8.1314 H   0  0  0  0  0  0  0  0  0  0  0  0
    3.0892    0.8075   -5.1218 H   0  0  0  0  0  0  0  0  0  0  0  0
    3.4255   -0.3490   -6.4238 H   0  0  0  0  0  0  0  0  0  0  0  0
    6.8929    0.5176   -3.4176 H   0  0  0  0  0  0  0  0  0  0  0  0
    6.3914   -2.0180   -2.8748 H   0  0  0  0  0  0  0  0  0  0  0  0
    6.3389   -0.8563   -1.3435 H   0  0  0  0  0  0  0  0  0  0  0  0
    7.5343   -1.6910    1.1699 H   0  0  0  0  0  0  0  0  0  0  0  0
    7.3029   -3.8346    1.7571 H   0  0  0  0  0  0  0  0  0  0  0  0
    5.3439   -5.4337    0.0549 H   0  0  0  0  0  0  0  0  0  0  0  0
    4.8867   -5.8957    2.4620 H   0  0  0  0  0  0  0  0  0  0  0  0
    5.7383   -7.2553    1.7329 H   0  0  0  0  0  0  0  0  0  0  0  0
    6.6125   -6.1133    2.7556 H   0  0  0  0  0  0  0  0  0  0  0  0
    7.2926   -6.9119   -0.2074 H   0  0  0  0  0  0  0  0  0  0  0  0
    7.6581   -5.2816   -0.7705 H   0  0  0  0  0  0  0  0  0  0  0  0
    8.2719   -5.8354    0.7920 H   0  0  0  0  0  0  0  0  0  0  0  0
    4.1997   -3.9188    4.8877 H   0  0  0  0  0  0  0  0  0  0  0  0
    5.6496   -3.1810    5.5947 H   0  0  0  0  0  0  0  0  0  0  0  0
    2.7525   -2.2680    6.0007 H   0  0  0  0  0  0  0  0  0  0  0  0
    3.7962   -3.0372    7.2290 H   0  0  0  0  0  0  0  0  0  0  0  0
    9.3636    1.5468   10.1652 H   0  0  0  0  0  0  0  0  0  0  0  0
    8.2852    0.7016    9.0370 H   0  0  0  0  0  0  0  0  0  0  0  0
    9.0108    2.2693    8.6026 H   0  0  0  0  0  0  0  0  0  0  0  0
    6.5801    0.7818   11.0685 H   0  0  0  0  0  0  0  0  0  0  0  0
    7.9627    1.5629   11.8612 H   0  0  0  0  0  0  0  0  0  0  0  0
    6.4095    2.3843   11.8279 H   0  0  0  0  0  0  0  0  0  0  0  0
    7.4967    4.3216    8.2550 H   0  0  0  0  0  0  0  0  0  0  0  0
    7.4658    2.8777    7.2266 H   0  0  0  0  0  0  0  0  0  0  0  0
    6.0383    3.8955    7.3475 H   0  0  0  0  0  0  0  0  0  0  0  0
    4.7416    2.9238   10.5420 H   0  0  0  0  0  0  0  0  0  0  0  0
    5.7698    4.3557   10.3423 H   0  0  0  0  0  0  0  0  0  0  0  0
    4.5908    3.9126    9.0979 H   0  0  0  0  0  0  0  0  0  0  0  0
    3.3346    0.0422    5.3122 H   0  0  0  0  0  0  0  0  0  0  0  0
    4.7412    0.8154    6.0835 H   0  0  0  0  0  0  0  0  0  0  0  0
    6.2666   -0.7483    4.8864 H   0  0  0  0  0  0  0  0  0  0  0  0
    5.2200    0.0690    3.7149 H   0  0  0  0  0  0  0  0  0  0  0  0
    3.2839   -3.8012    2.2324 H   0  0  0  0  0  0  0  0  0  0  0  0
    3.6383   -2.3798    1.2280 H   0  0  0  0  0  0  0  0  0  0  0  0
    3.9681   -3.9932    0.6106 H   0  0  0  0  0  0  0  0  0  0  0  0
    7.7535    0.5311    0.9207 H   0  0  0  0  0  0  0  0  0  0  0  0
    7.7691    1.3286   -0.6488 H   0  0  0  0  0  0  0  0  0  0  0  0
    5.8996    2.1018    0.7922 H   0  0  0  0  0  0  0  0  0  0  0  0
    5.6378    2.2671   -1.6156 H   0  0  0  0  0  0  0  0  0  0  0  0
    5.0105    0.5908   -1.7202 H   0  0  0  0  0  0  0  0  0  0  0  0
    2.0279    1.3585    0.2224 H   0  0  0  0  0  0  0  0  0  0  0  0
    2.9342    0.0593   -0.5932 H   0  0  0  0  0  0  0  0  0  0  0  0
    3.8647    1.6388    1.8612 H   0  0  0  0  0  0  0  0  0  0  0  0
    3.2936   -0.0574    1.8613 H   0  0  0  0  0  0  0  0  0  0  0  0
   10.3563   -1.3139   -3.2273 H   0  0  0  0  0  0  0  0  0  0  0  0
    9.3827   -2.3177   -4.3435 H   0  0  0  0  0  0  0  0  0  0  0  0
    9.3435    0.7305   -4.0930 H   0  0  0  0  0  0  0  0  0  0  0  0
    9.9249   -0.1918   -5.4843 H   0  0  0  0  0  0  0  0  0  0  0  0
    7.6515   -1.0243   -5.9383 H   0  0  0  0  0  0  0  0  0  0  0  0
    7.5816    0.7424   -5.8004 H   0  0  0  0  0  0  0  0  0  0  0  0
    0.3107    4.6807   -1.9852 H   0  0  0  0  0  0  0  0  0  0  0  0
    1.6312    3.4054   -0.3685 H   0  0  0  0  0  0  0  0  0  0  0  0
    4.3332    2.1258   -3.4377 H   0  0  0  0  0  0  0  0  0  0  0  0
  1  2  1  0  0  0  0
  2  3  1  0  0  0  0
  2  5  1  0  0  0  0
  3  4  1  0  0  0  0
  5  6  2  0  0  0  0
  5 10  1  0  0  0  0
  6  7  1  0  0  0  0
  7  8  2  0  0  0  0
  8  9  1  0  0  0  0
  9 10  2  0  0  0  0
 10 11  1  0  0  0  0
 11 12  1  0  0  0  0
 11 15  2  0  0  0  0
 12 13  1  0  0  0  0
 12 68  1  0  0  0  0
 13 14  1  0  0  0  0
 15 16  1  0  0  0  0
 15 67  1  0  0  0  0
 16 17  1  0  0  0  0
 17 18  1  0  0  0  0
 17 19  1  0  0  0  0
 17 20  1  0  0  0  0
 20 21  1  0  0  0  0
 21 22  1  0  0  0  0
 22 23  1  0  0  0  0
 22 66  2  0  0  0  0
 23 24  1  0  0  0  0
 23 65  1  0  0  0  0
 24 25  1  0  0  0  0
 25 26  1  0  0  0  0
 25 63  1  0  0  0  0
 26 27  1  0  0  0  0
 26 62  2  0  0  0  0
 27 28  1  0  0  0  0
 27 55  1  0  0  0  0
 28 29  1  0  0  0  0
 29 30  1  0  0  0  0
 29 54  2  0  0  0  0
 30 31  1  0  0  0  0
 30 34  1  0  0  0  0
 31 32  1  0  0  0  0
 31 33  1  0  0  0  0
 34 35  1  0  0  0  0
 34 53  1  0  0  0  0
 35 36  1  0  0  0  0
 35 52  2  0  0  0  0
 36 37  1  0  0  0  0
 36 51  1  0  0  0  0
 36 73  1  0  0  0  0
 37 38  1  0  0  0  0
 38 39  1  0  0  0  0
 39 40  1  0  0  0  0
 39 50  1  0  0  0  0
 40 41  1  0  0  0  0
 40 49  2  0  0  0  0
 42 43  1  0  0  0  0
 43 44  1  0  0  0  0
 43 47  1  0  0  0  0
 43 48  1  0  0  0  0
 44 45  1  0  0  0  0
 44 46  1  0  0  0  0
 50 51  1  0  0  0  0
 55 56  1  0  0  0  0
 56 57  1  0  0  0  0
 56 61  1  0  0  0  0
 57 58  1  0  0  0  0
 58 59  1  0  0  0  0
 58 71  1  0  0  0  0
 59 60  1  0  0  0  0
 60 61  1  0  0  0  0
 63 64  1  0  0  0  0
 64 65  1  0  0  0  0
 67 68  2  0  0  0  0
 67 72  1  0  0  0  0
 68 69  1  0  0  0  0
 69 70  2  0  0  0  0
 70 71  1  0  0  0  0
 71 72  2  0  0  0  0
  1 74  1  0  0  0  0
  1 75  1  0  0  0  0
  1 76  1  0  0  0  0
  2 77  1  0  0  0  0
  4 78  1  0  0  0  0
  4 79  1  0  0  0  0
  4 80  1  0  0  0  0
  7 81  1  0  0  0  0
  8 82  1  0  0  0  0
  9 83  1  0  0  0  0
 13 84  1  0  0  0  0
 13 85  1  0  0  0  0
 14 86  1  0  0  0  0
 14 87  1  0  0  0  0
 14 88  1  0  0  0  0
 16 89  1  0  0  0  0
 16 90  1  0  0  0  0
 18 91  1  0  0  0  0
 18 92  1  0  0  0  0
 18 93  1  0  0  0  0
 19 94  1  0  0  0  0
 19 95  1  0  0  0  0
 19 96  1  0  0  0  0
 20 97  1  0  0  0  0
 20 98  1  0  0  0  0
 23 99  1  0  0  0  0
 24100  1  0  0  0  0
 27101  1  0  0  0  0
 28102  1  0  0  0  0
 30103  1  0  0  0  0
 31104  1  0  0  0  0
 32105  1  0  0  0  0
 32106  1  0  0  0  0
 32107  1  0  0  0  0
 33108  1  0  0  0  0
 33109  1  0  0  0  0
 33110  1  0  0  0  0
 37111  1  0  0  0  0
 37112  1  0  0  0  0
 38113  1  0  0  0  0
 38114  1  0  0  0  0
 45115  1  0  0  0  0
 45116  1  0  0  0  0
 45117  1  0  0  0  0
 46118  1  0  0  0  0
 46119  1  0  0  0  0
 46120  1  0  0  0  0
 47121  1  0  0  0  0
 47122  1  0  0  0  0
 47123  1  0  0  0  0
 48124  1  0  0  0  0
 48125  1  0  0  0  0
 48126  1  0  0  0  0
 50127  1  0  0  0  0
 50128  1  0  0  0  0
 51129  1  0  0  0  0
 51130  1  0  0  0  0
 53131  1  0  0  0  0
 53132  1  0  0  0  0
 53133  1  0  0  0  0
 55134  1  0  0  0  0
 55135  1  0  0  0  0
 56136  1  0  0  0  0
 57137  1  0  0  0  0
 57138  1  0  0  0  0
 59139  1  0  0  0  0
 59140  1  0  0  0  0
 60141  1  0  0  0  0
 60142  1  0  0  0  0
 63143  1  0  0  0  0
 63144  1  0  0  0  0
 64145  1  0  0  0  0
 64146  1  0  0  0  0
 65147  1  0  0  0  0
 65148  1  0  0  0  0
 69149  1  0  0  0  0
 70150  1  0  0  0  0
 72151  1  0  0  0  0
 41 42  3  0  0  0  0
M  END
$$$$
