 xtb: 6.7.1 (edcfbbe)
          08232516383D

151157  0     0  0            999 V2000
   -2.1090   -4.2310   -4.5359 C   0  0  0  0  0  0  0  0  0  0  0  0
   -1.1477   -3.1437   -5.0326 C   0  0  0  0  0  0  0  0  0  0  0  0
   -0.2690   -2.7030   -4.0103 O   0  0  0  0  0  0  0  0  0  0  0  0
    0.9332   -3.4212   -3.9413 C   0  0  0  0  0  0  0  0  0  0  0  0
   -1.9355   -1.9872   -5.6081 C   0  0  0  0  0  0  0  0  0  0  0  0
   -1.9666   -1.9957   -6.9352 N   0  0  0  0  0  0  0  0  0  0  0  0
   -2.6906   -1.1045   -7.5842 C   0  0  0  0  0  0  0  0  0  0  0  0
   -3.4528   -0.1445   -6.9395 C   0  0  0  0  0  0  0  0  0  0  0  0
   -3.4143   -0.1194   -5.5584 C   0  0  0  0  0  0  0  0  0  0  0  0
   -2.6334   -1.0371   -4.8535 C   0  0  0  0  0  0  0  0  0  0  0  0
   -2.6297   -0.9472   -3.3854 C   0  0  0  0  0  0  0  0  0  0  0  0
   -3.7470   -1.3419   -2.6827 N   0  0  0  0  0  0  0  0  0  0  0  0
   -4.9228   -1.9741   -3.2208 C   0  0  0  0  0  0  0  0  0  0  0  0
   -6.1229   -1.0280   -3.2466 C   0  0  0  0  0  0  0  0  0  0  0  0
   -1.7025   -0.3904   -2.5330 C   0  0  0  0  0  0  0  0  0  0  0  0
   -0.3311    0.1298   -2.8315 C   0  0  0  0  0  0  0  0  0  0  0  0
   -0.2147    1.6259   -3.2008 C   0  0  0  0  0  0  0  0  0  0  0  0
   -1.0591    1.9334   -4.4382 C   0  0  0  0  0  0  0  0  0  0  0  0
    1.2533    1.9339   -3.5065 C   0  0  0  0  0  0  0  0  0  0  0  0
   -0.7277    2.5370   -2.0658 C   0  0  0  0  0  0  0  0  0  0  0  0
    0.2401    2.8606   -1.0570 O   0  0  0  0  0  0  0  0  0  0  0  0
    0.8360    4.0457   -1.1618 C   0  0  0  0  0  0  0  0  0  0  0  0
    1.6754    4.3700    0.0691 C   0  0  0  0  0  0  0  0  0  0  0  0
    2.6328    3.3293    0.4161 N   0  0  0  0  0  0  0  0  0  0  0  0
    3.1724    3.6012    1.6796 N   0  0  0  0  0  0  0  0  0  0  0  0
    2.6386    3.2395    2.8688 C   0  0  0  0  0  0  0  0  0  0  0  0
    1.4626    2.2460    2.8069 C   0  0  0  0  0  0  0  0  0  0  0  0
    1.9607    0.9182    3.1063 N   0  0  0  0  0  0  0  0  0  0  0  0
    2.4334    0.1150    2.1445 C   0  0  0  0  0  0  0  0  0  0  0  0
    2.9418   -1.2444    2.6311 C   0  0  0  0  0  0  0  0  0  0  0  0
    4.4702   -1.2387    2.7975 C   0  0  0  0  0  0  0  0  0  0  0  0
    4.9349   -2.5749    3.3748 C   0  0  0  0  0  0  0  0  0  0  0  0
    4.8940   -0.1006    3.7255 C   0  0  0  0  0  0  0  0  0  0  0  0
    2.4445   -2.2755    1.7181 N   0  0  0  0  0  0  0  0  0  0  0  0
    1.2502   -2.8000    2.0463 C   0  0  0  0  0  0  0  0  0  0  0  0
    0.5508   -3.7945    1.1033 C   0  0  0  0  0  0  0  0  0  0  0  0
   -0.0901   -3.0660   -0.0812 C   0  0  0  0  0  0  0  0  0  0  0  0
   -0.8465   -4.0589   -0.9627 C   0  0  0  0  0  0  0  0  0  0  0  0
   -1.8448   -4.7447   -0.1796 N   0  0  0  0  0  0  0  0  0  0  0  0
   -3.1532   -4.6482   -0.4922 C   0  0  0  0  0  0  0  0  0  0  0  0
   -4.0746   -5.2055    0.4654 C   0  0  0  0  0  0  0  0  0  0  0  0
   -4.9709   -5.5395    1.1974 C   0  0  0  0  0  0  0  0  0  0  0  0
   -6.1142   -5.9667    2.0013 C   0  0  0  0  0  0  0  0  0  0  0  0
   -7.2912   -6.2096    1.1503 N   0  0  0  0  0  0  0  0  0  0  0  0
   -7.7405   -5.0269    0.4368 C   0  0  0  0  0  0  0  0  0  0  0  0
   -7.1167   -7.3116    0.2213 C   0  0  0  0  0  0  0  0  0  0  0  0
   -6.4270   -4.8592    3.0223 C   0  0  0  0  0  0  0  0  0  0  0  0
   -5.7460   -7.2441    2.7726 C   0  0  0  0  0  0  0  0  0  0  0  0
   -3.5651   -4.1221   -1.5149 O   0  0  0  0  0  0  0  0  0  0  0  0
   -1.3162   -5.4745    0.9447 C   0  0  0  0  0  0  0  0  0  0  0  0
   -0.5342   -4.5503    1.8768 C   0  0  0  0  0  0  0  0  0  0  0  0
    0.6782   -2.4926    3.0842 O   0  0  0  0  0  0  0  0  0  0  0  0
    3.1404   -2.4291    0.4586 C   0  0  0  0  0  0  0  0  0  0  0  0
    2.4464    0.4415    0.9661 O   0  0  0  0  0  0  0  0  0  0  0  0
    0.3624    2.6504    3.7856 C   0  0  0  0  0  0  0  0  0  0  0  0
   -0.8483    1.7033    3.7790 C   0  0  0  0  0  0  0  0  0  0  0  0
   -1.0954    1.0852    2.4011 C   0  0  0  0  0  0  0  0  0  0  0  0
   -2.2442    0.2021    2.4227 N   0  0  0  0  0  0  0  0  0  0  0  0
   -2.0513   -0.8220    3.4434 C   0  0  0  0  0  0  0  0  0  0  0  0
   -1.7691   -0.1597    4.7917 C   0  0  0  0  0  0  0  0  0  0  0  0
   -0.6396    0.6820    4.7351 O   0  0  0  0  0  0  0  0  0  0  0  0
    3.1081    3.6029    3.9316 O   0  0  0  0  0  0  0  0  0  0  0  0
    4.0719    4.7378    1.5974 C   0  0  0  0  0  0  0  0  0  0  0  0
    3.2687    5.9654    1.1556 C   0  0  0  0  0  0  0  0  0  0  0  0
    2.4893    5.6546   -0.1228 C   0  0  0  0  0  0  0  0  0  0  0  0
    0.6666    4.8234   -2.0637 O   0  0  0  0  0  0  0  0  0  0  0  0
   -2.2752   -0.4723   -1.2295 C   0  0  0  0  0  0  0  0  0  0  0  0
   -3.5410   -1.0842   -1.3584 C   0  0  0  0  0  0  0  0  0  0  0  0
   -4.3253   -1.3281   -0.2350 C   0  0  0  0  0  0  0  0  0  0  0  0
   -3.8540   -0.9214    0.9925 C   0  0  0  0  0  0  0  0  0  0  0  0
   -2.6099   -0.2784    1.1407 C   0  0  0  0  0  0  0  0  0  0  0  0
   -1.8129   -0.0782    0.0263 C   0  0  0  0  0  0  0  0  0  0  0  0
    1.4665   -4.7406    0.6332 F   0  0  0  0  0  0  0  0  0  0  0  0
   -2.6727   -3.8828   -3.6745 H   0  0  0  0  0  0  0  0  0  0  0  0
   -2.7982   -4.4970   -5.3331 H   0  0  0  0  0  0  0  0  0  0  0  0
   -1.5520   -5.1205   -4.2494 H   0  0  0  0  0  0  0  0  0  0  0  0
   -0.5591   -3.5485   -5.8699 H   0  0  0  0  0  0  0  0  0  0  0  0
    0.7701   -4.4792   -3.7072 H   0  0  0  0  0  0  0  0  0  0  0  0
    1.4917   -3.3546   -4.8838 H   0  0  0  0  0  0  0  0  0  0  0  0
    1.5190   -2.9637   -3.1458 H   0  0  0  0  0  0  0  0  0  0  0  0
   -2.6595   -1.1752   -8.6636 H   0  0  0  0  0  0  0  0  0  0  0  0
   -4.0509    0.5600   -7.4961 H   0  0  0  0  0  0  0  0  0  0  0  0
   -3.9874    0.6160   -5.0114 H   0  0  0  0  0  0  0  0  0  0  0  0
   -4.6993   -2.3181   -4.2335 H   0  0  0  0  0  0  0  0  0  0  0  0
   -5.1469   -2.8479   -2.6031 H   0  0  0  0  0  0  0  0  0  0  0  0
   -6.3206   -0.6371   -2.2517 H   0  0  0  0  0  0  0  0  0  0  0  0
   -5.9408   -0.1895   -3.9146 H   0  0  0  0  0  0  0  0  0  0  0  0
   -7.0043   -1.5604   -3.5946 H   0  0  0  0  0  0  0  0  0  0  0  0
    0.2930   -0.0458   -1.9521 H   0  0  0  0  0  0  0  0  0  0  0  0
    0.0814   -0.4496   -3.6576 H   0  0  0  0  0  0  0  0  0  0  0  0
   -2.1162    1.8496   -4.2026 H   0  0  0  0  0  0  0  0  0  0  0  0
   -0.8614    2.9432   -4.7915 H   0  0  0  0  0  0  0  0  0  0  0  0
   -0.8254    1.2350   -5.2376 H   0  0  0  0  0  0  0  0  0  0  0  0
    1.8875    1.6809   -2.6590 H   0  0  0  0  0  0  0  0  0  0  0  0
    1.5805    1.3539   -4.3662 H   0  0  0  0  0  0  0  0  0  0  0  0
    1.3828    2.9898   -3.7334 H   0  0  0  0  0  0  0  0  0  0  0  0
   -1.0728    3.4830   -2.4953 H   0  0  0  0  0  0  0  0  0  0  0  0
   -1.5521    2.0516   -1.5400 H   0  0  0  0  0  0  0  0  0  0  0  0
    0.9387    4.5276    0.8842 H   0  0  0  0  0  0  0  0  0  0  0  0
    2.3023    2.3694    0.3382 H   0  0  0  0  0  0  0  0  0  0  0  0
    1.0564    2.2251    1.7931 H   0  0  0  0  0  0  0  0  0  0  0  0
    1.8788    0.6087    4.0623 H   0  0  0  0  0  0  0  0  0  0  0  0
    2.4868   -1.4610    3.6035 H   0  0  0  0  0  0  0  0  0  0  0  0
    4.9365   -1.0707    1.8228 H   0  0  0  0  0  0  0  0  0  0  0  0
    4.5467   -2.6996    4.3835 H   0  0  0  0  0  0  0  0  0  0  0  0
    4.5895   -3.4137    2.7763 H   0  0  0  0  0  0  0  0  0  0  0  0
    6.0209   -2.6072    3.4192 H   0  0  0  0  0  0  0  0  0  0  0  0
    4.4095   -0.1918    4.6954 H   0  0  0  0  0  0  0  0  0  0  0  0
    5.9697   -0.1375    3.8802 H   0  0  0  0  0  0  0  0  0  0  0  0
    4.6478    0.8713    3.3056 H   0  0  0  0  0  0  0  0  0  0  0  0
   -0.7865   -2.3229    0.3124 H   0  0  0  0  0  0  0  0  0  0  0  0
    0.6515   -2.5453   -0.6844 H   0  0  0  0  0  0  0  0  0  0  0  0
   -1.3377   -3.5278   -1.7782 H   0  0  0  0  0  0  0  0  0  0  0  0
   -0.1449   -4.7932   -1.3754 H   0  0  0  0  0  0  0  0  0  0  0  0
   -8.0514   -4.2589    1.1404 H   0  0  0  0  0  0  0  0  0  0  0  0
   -6.9722   -4.6133   -0.2323 H   0  0  0  0  0  0  0  0  0  0  0  0
   -8.6083   -5.2993   -0.1622 H   0  0  0  0  0  0  0  0  0  0  0  0
   -6.9649   -8.2411    0.7639 H   0  0  0  0  0  0  0  0  0  0  0  0
   -8.0309   -7.4139   -0.3616 H   0  0  0  0  0  0  0  0  0  0  0  0
   -6.2778   -7.1582   -0.4733 H   0  0  0  0  0  0  0  0  0  0  0  0
   -5.6559   -4.8370    3.7886 H   0  0  0  0  0  0  0  0  0  0  0  0
   -6.4560   -3.8805    2.5516 H   0  0  0  0  0  0  0  0  0  0  0  0
   -7.3864   -5.0644    3.4897 H   0  0  0  0  0  0  0  0  0  0  0  0
   -5.0281   -7.0067    3.5541 H   0  0  0  0  0  0  0  0  0  0  0  0
   -6.6410   -7.6583    3.2290 H   0  0  0  0  0  0  0  0  0  0  0  0
   -5.2958   -7.9889    2.1219 H   0  0  0  0  0  0  0  0  0  0  0  0
   -2.1370   -5.9477    1.4868 H   0  0  0  0  0  0  0  0  0  0  0  0
   -0.6432   -6.2564    0.5681 H   0  0  0  0  0  0  0  0  0  0  0  0
   -0.0690   -5.1324    2.6732 H   0  0  0  0  0  0  0  0  0  0  0  0
   -1.2012   -3.8185    2.3312 H   0  0  0  0  0  0  0  0  0  0  0  0
    4.1554   -2.7864    0.6340 H   0  0  0  0  0  0  0  0  0  0  0  0
    2.6460   -3.1474   -0.1820 H   0  0  0  0  0  0  0  0  0  0  0  0
    3.1822   -1.4613   -0.0447 H   0  0  0  0  0  0  0  0  0  0  0  0
    0.7750    2.6788    4.7956 H   0  0  0  0  0  0  0  0  0  0  0  0
    0.0312    3.6578    3.5286 H   0  0  0  0  0  0  0  0  0  0  0  0
   -1.7488    2.2709    4.0734 H   0  0  0  0  0  0  0  0  0  0  0  0
   -1.2845    1.8819    1.6777 H   0  0  0  0  0  0  0  0  0  0  0  0
   -0.2001    0.5158    2.1147 H   0  0  0  0  0  0  0  0  0  0  0  0
   -2.9491   -1.4360    3.5184 H   0  0  0  0  0  0  0  0  0  0  0  0
   -1.1919   -1.4645    3.1986 H   0  0  0  0  0  0  0  0  0  0  0  0
   -2.6461    0.4258    5.1091 H   0  0  0  0  0  0  0  0  0  0  0  0
   -1.5443   -0.9194    5.5415 H   0  0  0  0  0  0  0  0  0  0  0  0
    4.5203    4.8884    2.5792 H   0  0  0  0  0  0  0  0  0  0  0  0
    4.8426    4.4990    0.8621 H   0  0  0  0  0  0  0  0  0  0  0  0
    2.5732    6.2352    1.9541 H   0  0  0  0  0  0  0  0  0  0  0  0
    3.9416    6.8066    0.9915 H   0  0  0  0  0  0  0  0  0  0  0  0
    3.1799    5.4941   -0.9513 H   0  0  0  0  0  0  0  0  0  0  0  0
    1.8269    6.4790   -0.3849 H   0  0  0  0  0  0  0  0  0  0  0  0
   -5.2796   -1.8263   -0.3138 H   0  0  0  0  0  0  0  0  0  0  0  0
   -4.4607   -1.0790    1.8716 H   0  0  0  0  0  0  0  0  0  0  0  0
   -0.8368    0.3731    0.0912 H   0  0  0  0  0  0  0  0  0  0  0  0
  1  2  1  0  0  0  0
  2  3  1  0  0  0  0
  3  4  1  0  0  0  0
  2  5  1  0  0  0  0
  5  6  4  0  0  0  0
  6  7  4  0  0  0  0
  7  8  4  0  0  0  0
  8  9  4  0  0  0  0
  5 10  4  0  0  0  0
  9 10  4  0  0  0  0
 10 11  1  0  0  0  0
 11 12  1  0  0  0  0
 12 13  1  0  0  0  0
 13 14  1  0  0  0  0
 11 15  2  0  0  0  0
 15 16  1  0  0  0  0
 16 17  1  0  0  0  0
 17 18  1  0  0  0  0
 17 19  1  0  0  0  0
 17 20  1  0  0  0  0
 20 21  1  0  0  0  0
 21 22  1  0  0  0  0
 22 23  1  0  0  0  0
 23 24  1  0  0  0  0
 24 25  1  0  0  0  0
 25 26  4  0  0  0  0
 26 27  1  0  0  0  0
 27 28  1  0  0  0  0
 28 29  4  0  0  0  0
 29 30  1  0  0  0  0
 30 31  1  0  0  0  0
 31 32  1  0  0  0  0
 31 33  1  0  0  0  0
 30 34  1  0  0  0  0
 34 35  4  0  0  0  0
 35 36  1  0  0  0  0
 36 37  1  0  0  0  0
 37 38  1  0  0  0  0
 38 39  1  0  0  0  0
 39 40  4  0  0  0  0
 40 41  1  0  0  0  0
 41 42  3  0  0  0  0
 42 43  1  0  0  0  0
 43 44  1  0  0  0  0
 44 45  1  0  0  0  0
 44 46  1  0  0  0  0
 43 47  1  0  0  0  0
 43 48  1  0  0  0  0
 40 49  2  0  0  0  0
 39 50  1  0  0  0  0
 36 51  1  0  0  0  0
 50 51  1  0  0  0  0
 35 52  2  0  0  0  0
 34 53  1  0  0  0  0
 29 54  2  0  0  0  0
 27 55  1  0  0  0  0
 55 56  1  0  0  0  0
 56 57  1  0  0  0  0
 57 58  1  0  0  0  0
 58 59  1  0  0  0  0
 59 60  1  0  0  0  0
 56 61  1  0  0  0  0
 60 61  1  0  0  0  0
 26 62  2  0  0  0  0
 25 63  1  0  0  0  0
 63 64  1  0  0  0  0
 23 65  1  0  0  0  0
 64 65  1  0  0  0  0
 22 66  2  0  0  0  0
 15 67  4  0  0  0  0
 12 68  1  0  0  0  0
 67 68  4  0  0  0  0
 68 69  4  0  0  0  0
 69 70  2  0  0  0  0
 58 71  1  0  0  0  0
 70 71  4  0  0  0  0
 67 72  4  0  0  0  0
 71 72  4  0  0  0  0
 36 73  1  0  0  0  0
  1 74  1  0  0  0  0
  1 75  1  0  0  0  0
  1 76  1  0  0  0  0
  2 77  1  0  0  0  0
  4 78  1  0  0  0  0
  4 79  1  0  0  0  0
  4 80  1  0  0  0  0
  7 81  1  0  0  0  0
  8 82  1  0  0  0  0
  9 83  1  0  0  0  0
 13 84  1  0  0  0  0
 13 85  1  0  0  0  0
 14 86  1  0  0  0  0
 14 87  1  0  0  0  0
 14 88  1  0  0  0  0
 16 89  1  0  0  0  0
 16 90  1  0  0  0  0
 18 91  1  0  0  0  0
 18 92  1  0  0  0  0
 18 93  1  0  0  0  0
 19 94  1  0  0  0  0
 19 95  1  0  0  0  0
 19 96  1  0  0  0  0
 20 97  1  0  0  0  0
 20 98  1  0  0  0  0
 23 99  1  0  0  0  0
 24100  1  0  0  0  0
 27101  1  0  0  0  0
 28102  1  0  0  0  0
 30103  1  0  0  0  0
 31104  1  0  0  0  0
 32105  1  0  0  0  0
 32106  1  0  0  0  0
 32107  1  0  0  0  0
 33108  1  0  0  0  0
 33109  1  0  0  0  0
 33110  1  0  0  0  0
 37111  1  0  0  0  0
 37112  1  0  0  0  0
 38113  1  0  0  0  0
 38114  1  0  0  0  0
 45115  1  0  0  0  0
 45116  1  0  0  0  0
 45117  1  0  0  0  0
 46118  1  0  0  0  0
 46119  1  0  0  0  0
 46120  1  0  0  0  0
 47121  1  0  0  0  0
 47122  1  0  0  0  0
 47123  1  0  0  0  0
 48124  1  0  0  0  0
 48125  1  0  0  0  0
 48126  1  0  0  0  0
 50127  1  0  0  0  0
 50128  1  0  0  0  0
 51129  1  0  0  0  0
 51130  1  0  0  0  0
 53131  1  0  0  0  0
 53132  1  0  0  0  0
 53133  1  0  0  0  0
 55134  1  0  0  0  0
 55135  1  0  0  0  0
 56136  1  0  0  0  0
 57137  1  0  0  0  0
 57138  1  0  0  0  0
 59139  1  0  0  0  0
 59140  1  0  0  0  0
 60141  1  0  0  0  0
 60142  1  0  0  0  0
 63143  1  0  0  0  0
 63144  1  0  0  0  0
 64145  1  0  0  0  0
 64146  1  0  0  0  0
 65147  1  0  0  0  0
 65148  1  0  0  0  0
 69149  1  0  0  0  0
 70150  1  0  0  0  0
 72151  1  0  0  0  0
M  END
$$$$
