mol_bioactive_17
     RDKit          3D

151157  0  0  0  0  0  0  0  0999 V2000
   -3.3155    1.0318    2.7655 C   0  0  0  0  0  0  0  0  0  0  0  0
   -3.6143   -0.4515    2.9309 C   0  0  2  0  0  0  0  0  0  0  0  0
   -2.6343   -1.2517    2.2573 O   0  0  0  0  0  0  0  0  0  0  0  0
   -1.5624   -1.6421    3.1041 C   0  0  0  0  0  0  0  0  0  0  0  0
   -5.0336   -0.7856    2.5086 C   0  0  0  0  0  0  0  0  0  0  0  0
   -5.8684   -0.9809    3.5748 N   0  0  0  0  0  0  0  0  0  0  0  0
   -7.1748   -1.1961    3.3394 C   0  0  0  0  0  0  0  0  0  0  0  0
   -7.7268   -1.2215    2.0759 C   0  0  0  0  0  0  0  0  0  0  0  0
   -6.8791   -1.0199    0.9934 C   0  0  0  0  0  0  0  0  0  0  0  0
   -5.5055   -0.8042    1.1858 C   0  0  0  0  0  0  0  0  0  0  0  0
   -4.6801   -0.6028   -0.0137 C   0  0  0  0  0  0  0  0  0  0  0  0
   -4.6146    0.6032   -0.6985 N   0  0  0  0  0  0  0  0  0  0  0  0
   -5.3080    1.8342   -0.3353 C   0  0  0  0  0  0  0  0  0  0  0  0
   -6.5463    2.0796   -1.1822 C   0  0  0  0  0  0  0  0  0  0  0  0
   -3.8704   -1.5163   -0.6937 C   0  0  0  0  0  0  0  0  0  0  0  0
   -3.5751   -2.9601   -0.3367 C   0  0  0  0  0  0  0  0  0  0  0  0
   -4.4533   -4.0718   -0.9803 C   0  0  0  0  0  0  0  0  0  0  0  0
   -3.9995   -5.4235   -0.3907 C   0  0  0  0  0  0  0  0  0  0  0  0
   -5.9316   -3.8841   -0.6004 C   0  0  0  0  0  0  0  0  0  0  0  0
   -4.3589   -4.1222   -2.5248 C   0  0  0  0  0  0  0  0  0  0  0  0
   -3.1485   -4.7569   -3.0023 O   0  0  0  0  0  0  0  0  0  0  0  0
   -3.3245   -5.8556   -3.8065 C   0  0  0  0  0  0  0  0  0  0  0  0
   -1.9948   -6.3814   -4.3655 C   0  0  1  0  0  0  0  0  0  0  0  0
   -0.9400   -6.4053   -3.3371 N   0  0  0  0  0  0  0  0  0  0  0  0
    0.2897   -6.8423   -3.9014 N   0  0  0  0  0  0  0  0  0  0  0  0
    1.2554   -5.9908   -4.4599 C   0  0  0  0  0  0  0  0  0  0  0  0
    1.0578   -4.4699   -4.3156 C   0  0  1  0  0  0  0  0  0  0  0  0
    2.1549   -3.9314   -3.5309 N   0  0  0  0  0  0  0  0  0  0  0  0
    2.0484   -3.7251   -2.1709 C   0  0  0  0  0  0  0  0  0  0  0  0
    3.3633   -3.2574   -1.4911 C   0  0  2  0  0  0  0  0  0  0  0  0
    4.1677   -4.4560   -0.9219 C   0  0  0  0  0  0  0  0  0  0  0  0
    5.5975   -4.0222   -0.5662 C   0  0  0  0  0  0  0  0  0  0  0  0
    4.2547   -5.6463   -1.8847 C   0  0  0  0  0  0  0  0  0  0  0  0
    3.0100   -2.2008   -0.5012 N   0  0  0  0  0  0  0  0  0  0  0  0
    2.7784   -0.9221   -1.0133 C   0  0  0  0  0  0  0  0  0  0  0  0
    2.1976    0.1941   -0.1065 C   0  0  0  0  0  0  0  0  0  0  0  0
    0.7298   -0.0761    0.2317 C   0  0  0  0  0  0  0  0  0  0  0  0
    0.1576    1.0586    1.0675 C   0  0  0  0  0  0  0  0  0  0  0  0
    0.3172    2.3340    0.3946 N   0  0  0  0  0  0  0  0  0  0  0  0
   -0.6362    3.3221    0.6325 C   0  0  0  0  0  0  0  0  0  0  0  0
   -0.6711    4.4372   -0.2822 C   0  0  0  0  0  0  0  0  0  0  0  0
   -0.7707    5.2630   -1.1514 C   0  0  0  0  0  0  0  0  0  0  0  0
   -0.9477    6.0847   -2.3671 C   0  0  0  0  0  0  0  0  0  0  0  0
   -0.3360    7.4297   -2.2663 N   0  0  0  0  0  0  0  0  0  0  0  0
   -1.1782    8.4528   -1.6512 C   0  0  0  0  0  0  0  0  0  0  0  0
    0.9905    7.4481   -1.6468 C   0  0  0  0  0  0  0  0  0  0  0  0
   -2.4596    6.1228   -2.6846 C   0  0  0  0  0  0  0  0  0  0  0  0
   -0.2773    5.3370   -3.5448 C   0  0  0  0  0  0  0  0  0  0  0  0
   -1.5042    3.2626    1.4924 O   0  0  0  0  0  0  0  0  0  0  0  0
    1.6713    2.6728   -0.0260 C   0  0  0  0  0  0  0  0  0  0  0  0
    2.3130    1.5490   -0.8255 C   0  0  0  0  0  0  0  0  0  0  0  0
    3.0150   -0.6808   -2.2043 O   0  0  0  0  0  0  0  0  0  0  0  0
    2.7443   -2.6080    0.8773 C   0  0  0  0  0  0  0  0  0  0  0  0
    0.9986   -3.9197   -1.5631 O   0  0  0  0  0  0  0  0  0  0  0  0
    0.9663   -3.8207   -5.7119 C   0  0  0  0  0  0  0  0  0  0  0  0
    0.6206   -2.3155   -5.7121 C   0  0  1  0  0  0  0  0  0  0  0  0
   -0.5082   -1.9941   -4.7186 C   0  0  0  0  0  0  0  0  0  0  0  0
   -0.7933   -0.5467   -4.6339 N   0  0  0  0  0  0  0  0  0  0  0  0
    0.4554    0.1992   -4.3382 C   0  0  0  0  0  0  0  0  0  0  0  0
    1.5432   -0.1631   -5.3623 C   0  0  0  0  0  0  0  0  0  0  0  0
    1.8159   -1.5746   -5.3984 O   0  0  0  0  0  0  0  0  0  0  0  0
    2.2584   -6.4280   -5.0387 O   0  0  0  0  0  0  0  0  0  0  0  0
    0.2599   -8.2535   -4.2896 C   0  0  0  0  0  0  0  0  0  0  0  0
   -0.8216   -8.4372   -5.3565 C   0  0  0  0  0  0  0  0  0  0  0  0
   -2.1572   -7.8236   -4.9021 C   0  0  0  0  0  0  0  0  0  0  0  0
   -4.4173   -6.3101   -4.1360 O   0  0  0  0  0  0  0  0  0  0  0  0
   -3.2498   -0.7932   -1.7620 C   0  0  0  0  0  0  0  0  0  0  0  0
   -3.7310    0.5108   -1.7562 C   0  0  0  0  0  0  0  0  0  0  0  0
   -3.3065    1.4559   -2.7042 C   0  0  0  0  0  0  0  0  0  0  0  0
   -2.3477    1.0629   -3.6522 C   0  0  0  0  0  0  0  0  0  0  0  0
   -1.8036   -0.2258   -3.6774 C   0  0  0  0  0  0  0  0  0  0  0  0
   -2.2900   -1.1496   -2.7331 C   0  0  0  0  0  0  0  0  0  0  0  0
    2.9091    0.3016    1.0605 F   0  0  0  0  0  0  0  0  0  0  0  0
   -2.3483    1.2779    3.2142 H   0  0  0  0  0  0  0  0  0  0  0  0
   -3.2537    1.3102    1.7115 H   0  0  0  0  0  0  0  0  0  0  0  0
   -4.0792    1.6494    3.2463 H   0  0  0  0  0  0  0  0  0  0  0  0
   -3.5580   -0.6616    4.0089 H   0  0  0  0  0  0  0  0  0  0  0  0
   -1.9256   -2.2797    3.9174 H   0  0  0  0  0  0  0  0  0  0  0  0
   -0.8507   -2.2182    2.5049 H   0  0  0  0  0  0  0  0  0  0  0  0
   -1.0508   -0.7631    3.5100 H   0  0  0  0  0  0  0  0  0  0  0  0
   -7.7836   -1.3453    4.2265 H   0  0  0  0  0  0  0  0  0  0  0  0
   -8.7868   -1.3971    1.9381 H   0  0  0  0  0  0  0  0  0  0  0  0
   -7.2953   -1.0369   -0.0128 H   0  0  0  0  0  0  0  0  0  0  0  0
   -5.5809    1.7908    0.7227 H   0  0  0  0  0  0  0  0  0  0  0  0
   -4.5970    2.6619   -0.4483 H   0  0  0  0  0  0  0  0  0  0  0  0
   -7.0553    2.9893   -0.8522 H   0  0  0  0  0  0  0  0  0  0  0  0
   -6.2851    2.2041   -2.2360 H   0  0  0  0  0  0  0  0  0  0  0  0
   -7.2482    1.2429   -1.1123 H   0  0  0  0  0  0  0  0  0  0  0  0
   -2.5198   -3.1599   -0.5746 H   0  0  0  0  0  0  0  0  0  0  0  0
   -3.6486   -3.0575    0.7543 H   0  0  0  0  0  0  0  0  0  0  0  0
   -4.1641   -5.4576    0.6913 H   0  0  0  0  0  0  0  0  0  0  0  0
   -4.5584   -6.2540   -0.8375 H   0  0  0  0  0  0  0  0  0  0  0  0
   -2.9324   -5.6010   -0.5675 H   0  0  0  0  0  0  0  0  0  0  0  0
   -6.0554   -3.8037    0.4842 H   0  0  0  0  0  0  0  0  0  0  0  0
   -6.3573   -2.9966   -1.0763 H   0  0  0  0  0  0  0  0  0  0  0  0
   -6.5320   -4.7424   -0.9284 H   0  0  0  0  0  0  0  0  0  0  0  0
   -5.2490   -4.6279   -2.9178 H   0  0  0  0  0  0  0  0  0  0  0  0
   -4.3877   -3.1156   -2.9529 H   0  0  0  0  0  0  0  0  0  0  0  0
   -1.7189   -5.7128   -5.1907 H   0  0  0  0  0  0  0  0  0  0  0  0
   -0.8588   -5.5342   -2.8076 H   0  0  0  0  0  0  0  0  0  0  0  0
    0.1291   -4.2823   -3.7891 H   0  0  0  0  0  0  0  0  0  0  0  0
    3.0415   -3.7832   -4.0013 H   0  0  0  0  0  0  0  0  0  0  0  0
    3.9826   -2.7902   -2.2717 H   0  0  0  0  0  0  0  0  0  0  0  0
    3.6856   -4.8344   -0.0125 H   0  0  0  0  0  0  0  0  0  0  0  0
    6.1355   -4.8390   -0.0761 H   0  0  0  0  0  0  0  0  0  0  0  0
    6.1615   -3.7555   -1.4684 H   0  0  0  0  0  0  0  0  0  0  0  0
    5.6081   -3.1586    0.1049 H   0  0  0  0  0  0  0  0  0  0  0  0
    4.8902   -6.4355   -1.4701 H   0  0  0  0  0  0  0  0  0  0  0  0
    3.2682   -6.0879   -2.0541 H   0  0  0  0  0  0  0  0  0  0  0  0
    4.6785   -5.3496   -2.8519 H   0  0  0  0  0  0  0  0  0  0  0  0
    0.1513   -0.1819   -0.6978 H   0  0  0  0  0  0  0  0  0  0  0  0
    0.6020   -1.0095    0.7852 H   0  0  0  0  0  0  0  0  0  0  0  0
   -0.9062    0.8680    1.2385 H   0  0  0  0  0  0  0  0  0  0  0  0
    0.6493    1.1198    2.0455 H   0  0  0  0  0  0  0  0  0  0  0  0
   -1.4760    8.1990   -0.6331 H   0  0  0  0  0  0  0  0  0  0  0  0
   -0.6501    9.4088   -1.6256 H   0  0  0  0  0  0  0  0  0  0  0  0
   -2.0716    8.6392   -2.2548 H   0  0  0  0  0  0  0  0  0  0  0  0
    0.9467    7.2680   -0.5699 H   0  0  0  0  0  0  0  0  0  0  0  0
    1.6706    6.7177   -2.0931 H   0  0  0  0  0  0  0  0  0  0  0  0
    1.4609    8.4255   -1.7982 H   0  0  0  0  0  0  0  0  0  0  0  0
   -3.0396    6.5571   -1.8643 H   0  0  0  0  0  0  0  0  0  0  0  0
   -2.6646    6.6949   -3.5950 H   0  0  0  0  0  0  0  0  0  0  0  0
   -2.8545    5.1105   -2.8381 H   0  0  0  0  0  0  0  0  0  0  0  0
    0.8102    5.2384   -3.4188 H   0  0  0  0  0  0  0  0  0  0  0  0
   -0.6696    4.3147   -3.6384 H   0  0  0  0  0  0  0  0  0  0  0  0
   -0.4636    5.8520   -4.4970 H   0  0  0  0  0  0  0  0  0  0  0  0
    1.6835    3.5949   -0.6111 H   0  0  0  0  0  0  0  0  0  0  0  0
    2.2506    2.8644    0.8858 H   0  0  0  0  0  0  0  0  0  0  0  0
    3.3677    1.7954   -0.9969 H   0  0  0  0  0  0  0  0  0  0  0  0
    1.8236    1.5023   -1.8059 H   0  0  0  0  0  0  0  0  0  0  0  0
    2.4392   -1.7859    1.5178 H   0  0  0  0  0  0  0  0  0  0  0  0
    1.9602   -3.3704    0.8849 H   0  0  0  0  0  0  0  0  0  0  0  0
    3.6590   -3.0138    1.3125 H   0  0  0  0  0  0  0  0  0  0  0  0
    1.9150   -3.9690   -6.2434 H   0  0  0  0  0  0  0  0  0  0  0  0
    0.1888   -4.3493   -6.2790 H   0  0  0  0  0  0  0  0  0  0  0  0
    0.3140   -2.0345   -6.7304 H   0  0  0  0  0  0  0  0  0  0  0  0
   -1.4119   -2.5462   -5.0089 H   0  0  0  0  0  0  0  0  0  0  0  0
   -0.1717   -2.3061   -3.7284 H   0  0  0  0  0  0  0  0  0  0  0  0
    0.2925    1.2818   -4.3725 H   0  0  0  0  0  0  0  0  0  0  0  0
    0.8009   -0.0734   -3.3348 H   0  0  0  0  0  0  0  0  0  0  0  0
    1.2581    0.1649   -6.3668 H   0  0  0  0  0  0  0  0  0  0  0  0
    2.4747    0.3364   -5.0915 H   0  0  0  0  0  0  0  0  0  0  0  0
    1.2325   -8.5765   -4.6726 H   0  0  0  0  0  0  0  0  0  0  0  0
    0.0318   -8.8509   -3.4003 H   0  0  0  0  0  0  0  0  0  0  0  0
   -0.5031   -7.9393   -6.2827 H   0  0  0  0  0  0  0  0  0  0  0  0
   -0.9527   -9.5000   -5.5841 H   0  0  0  0  0  0  0  0  0  0  0  0
   -2.5910   -8.4639   -4.1217 H   0  0  0  0  0  0  0  0  0  0  0  0
   -2.8612   -7.8364   -5.7426 H   0  0  0  0  0  0  0  0  0  0  0  0
   -3.6956    2.4680   -2.7152 H   0  0  0  0  0  0  0  0  0  0  0  0
   -2.0261    1.7874   -4.3960 H   0  0  0  0  0  0  0  0  0  0  0  0
   -1.9241   -2.1665   -2.6849 H   0  0  0  0  0  0  0  0  0  0  0  0
  1  2  1  0
  2  3  1  0
  2  5  1  0
  3  4  1  0
  5  6  2  0
  5 10  1  0
  6  7  1  0
  7  8  2  0
  8  9  1  0
  9 10  2  0
 10 11  1  0
 11 12  1  0
 11 15  2  0
 12 13  1  0
 12 68  1  0
 13 14  1  0
 15 16  1  0
 15 67  1  0
 16 17  1  0
 17 18  1  0
 17 19  1  0
 17 20  1  0
 20 21  1  0
 21 22  1  0
 22 23  1  0
 22 66  2  0
 23 24  1  0
 23 65  1  0
 24 25  1  0
 25 26  1  0
 25 63  1  0
 26 27  1  0
 26 62  2  0
 27 28  1  0
 27 55  1  0
 28 29  1  0
 29 30  1  0
 29 54  2  0
 30 31  1  0
 30 34  1  0
 31 32  1  0
 31 33  1  0
 34 35  1  0
 34 53  1  0
 35 36  1  0
 35 52  2  0
 36 37  1  0
 36 51  1  0
 36 73  1  0
 37 38  1  0
 38 39  1  0
 39 40  1  0
 39 50  1  0
 40 41  1  0
 40 49  2  0
 42 43  1  0
 43 44  1  0
 43 47  1  0
 43 48  1  0
 44 45  1  0
 44 46  1  0
 50 51  1  0
 55 56  1  0
 56 57  1  0
 56 61  1  0
 57 58  1  0
 58 59  1  0
 58 71  1  0
 59 60  1  0
 60 61  1  0
 63 64  1  0
 64 65  1  0
 67 68  2  0
 67 72  1  0
 68 69  1  0
 69 70  2  0
 70 71  1  0
 71 72  2  0
 41 42  3  0
  1 74  1  0
  1 75  1  0
  1 76  1  0
  2 77  1  1
  4 78  1  0
  4 79  1  0
  4 80  1  0
  7 81  1  0
  8 82  1  0
  9 83  1  0
 13 84  1  0
 13 85  1  0
 14 86  1  0
 14 87  1  0
 14 88  1  0
 16 89  1  0
 16 90  1  0
 18 91  1  0
 18 92  1  0
 18 93  1  0
 19 94  1  0
 19 95  1  0
 19 96  1  0
 20 97  1  0
 20 98  1  0
 23 99  1  6
 24100  1  0
 27101  1  1
 28102  1  0
 30103  1  6
 31104  1  0
 32105  1  0
 32106  1  0
 32107  1  0
 33108  1  0
 33109  1  0
 33110  1  0
 37111  1  0
 37112  1  0
 38113  1  0
 38114  1  0
 45115  1  0
 45116  1  0
 45117  1  0
 46118  1  0
 46119  1  0
 46120  1  0
 47121  1  0
 47122  1  0
 47123  1  0
 48124  1  0
 48125  1  0
 48126  1  0
 50127  1  0
 50128  1  0
 51129  1  0
 51130  1  0
 53131  1  0
 53132  1  0
 53133  1  0
 55134  1  0
 55135  1  0
 56136  1  6
 57137  1  0
 57138  1  0
 59139  1  0
 59140  1  0
 60141  1  0
 60142  1  0
 63143  1  0
 63144  1  0
 64145  1  0
 64146  1  0
 65147  1  0
 65148  1  0
 69149  1  0
 70150  1  0
 72151  1  0
M  END
$$$$
