 energy: -221.289985511316 gnorm: 0.000436139670 xtb: 6.7.1 (edcfbbe)
          08232515353D

151157  0     0  0            999 V2000
   -3.6777    1.1130    3.0139 C   0  0  0  0  0  0  0  0  0  0  0  0
   -3.9148   -0.4000    3.0952 C   0  0  0  0  0  0  0  0  0  0  0  0
   -2.8588   -1.1370    2.5004 O   0  0  0  0  0  0  0  0  0  0  0  0
   -1.8209   -1.4617    3.3855 C   0  0  0  0  0  0  0  0  0  0  0  0
   -5.2439   -0.7469    2.4607 C   0  0  0  0  0  0  0  0  0  0  0  0
   -6.1936   -0.9864    3.3570 N   0  0  0  0  0  0  0  0  0  0  0  0
   -7.4319   -1.2118    2.9633 C   0  0  0  0  0  0  0  0  0  0  0  0
   -7.8094   -1.1965    1.6308 C   0  0  0  0  0  0  0  0  0  0  0  0
   -6.8243   -0.9622    0.6905 C   0  0  0  0  0  0  0  0  0  0  0  0
   -5.5024   -0.7475    1.0850 C   0  0  0  0  0  0  0  0  0  0  0  0
   -4.5054   -0.5170    0.0285 C   0  0  0  0  0  0  0  0  0  0  0  0
   -4.5186    0.6749   -0.6624 N   0  0  0  0  0  0  0  0  0  0  0  0
   -5.3268    1.8296   -0.3709 C   0  0  0  0  0  0  0  0  0  0  0  0
   -6.4410    2.0257   -1.3987 C   0  0  0  0  0  0  0  0  0  0  0  0
   -3.5841   -1.3780   -0.5247 C   0  0  0  0  0  0  0  0  0  0  0  0
   -3.1887   -2.7552   -0.0924 C   0  0  0  0  0  0  0  0  0  0  0  0
   -3.9847   -3.9340   -0.6967 C   0  0  0  0  0  0  0  0  0  0  0  0
   -3.4270   -5.2376   -0.1195 C   0  0  0  0  0  0  0  0  0  0  0  0
   -5.4646   -3.8174   -0.3290 C   0  0  0  0  0  0  0  0  0  0  0  0
   -3.9009   -3.9507   -2.2379 C   0  0  0  0  0  0  0  0  0  0  0  0
   -2.7739   -4.6532   -2.7813 O   0  0  0  0  0  0  0  0  0  0  0  0
   -2.9940   -5.8950   -3.2050 C   0  0  0  0  0  0  0  0  0  0  0  0
   -1.7883   -6.4620   -3.9468 C   0  0  0  0  0  0  0  0  0  0  0  0
   -0.5544   -6.4076   -3.1747 N   0  0  0  0  0  0  0  0  0  0  0  0
    0.5266   -6.7272   -4.0057 N   0  0  0  0  0  0  0  0  0  0  0  0
    1.2070   -5.8646   -4.7948 C   0  0  0  0  0  0  0  0  0  0  0  0
    0.8992   -4.3690   -4.5876 C   0  0  0  0  0  0  0  0  0  0  0  0
    1.9548   -3.7830   -3.7861 N   0  0  0  0  0  0  0  0  0  0  0  0
    1.9022   -3.7906   -2.4480 C   0  0  0  0  0  0  0  0  0  0  0  0
    3.1109   -3.1619   -1.7496 C   0  0  0  0  0  0  0  0  0  0  0  0
    4.1017   -4.2371   -1.2765 C   0  0  0  0  0  0  0  0  0  0  0  0
    5.3505   -3.5742   -0.6968 C   0  0  0  0  0  0  0  0  0  0  0  0
    4.4925   -5.1410   -2.4456 C   0  0  0  0  0  0  0  0  0  0  0  0
    2.6168   -2.2886   -0.6822 N   0  0  0  0  0  0  0  0  0  0  0  0
    2.3185   -1.0367   -1.0735 C   0  0  0  0  0  0  0  0  0  0  0  0
    1.6849   -0.0382   -0.0883 C   0  0  0  0  0  0  0  0  0  0  0  0
    0.1898   -0.3129    0.0982 C   0  0  0  0  0  0  0  0  0  0  0  0
   -0.4334    0.7478    1.0072 C   0  0  0  0  0  0  0  0  0  0  0  0
   -0.2217    2.0549    0.4358 N   0  0  0  0  0  0  0  0  0  0  0  0
   -1.2653    2.8005    0.0116 C   0  0  0  0  0  0  0  0  0  0  0  0
   -0.9256    3.9259   -0.8229 C   0  0  0  0  0  0  0  0  0  0  0  0
   -0.8511    4.7991   -1.6492 C   0  0  0  0  0  0  0  0  0  0  0  0
   -0.6404    5.9239   -2.5593 C   0  0  0  0  0  0  0  0  0  0  0  0
   -0.0744    7.0859   -1.8537 N   0  0  0  0  0  0  0  0  0  0  0  0
   -0.9639    7.6475   -0.8530 C   0  0  0  0  0  0  0  0  0  0  0  0
    1.2333    6.8402   -1.2769 C   0  0  0  0  0  0  0  0  0  0  0  0
   -1.9911    6.2972   -3.1913 C   0  0  0  0  0  0  0  0  0  0  0  0
    0.3101    5.4777   -3.6831 C   0  0  0  0  0  0  0  0  0  0  0  0
   -2.4267    2.5487    0.2894 O   0  0  0  0  0  0  0  0  0  0  0  0
    1.1654    2.4014    0.2611 C   0  0  0  0  0  0  0  0  0  0  0  0
    1.8776    1.3831   -0.6267 C   0  0  0  0  0  0  0  0  0  0  0  0
    2.5359   -0.6566   -2.2168 O   0  0  0  0  0  0  0  0  0  0  0  0
    2.2305   -2.9175    0.5621 C   0  0  0  0  0  0  0  0  0  0  0  0
    0.9541   -4.2540   -1.8302 O   0  0  0  0  0  0  0  0  0  0  0  0
    0.7728   -3.6621   -5.9355 C   0  0  0  0  0  0  0  0  0  0  0  0
    0.4414   -2.1651   -5.8263 C   0  0  0  0  0  0  0  0  0  0  0  0
   -0.3917   -1.8418   -4.5843 C   0  0  0  0  0  0  0  0  0  0  0  0
   -0.6961   -0.4268   -4.5178 N   0  0  0  0  0  0  0  0  0  0  0  0
    0.5459    0.3373   -4.5392 C   0  0  0  0  0  0  0  0  0  0  0  0
    1.3625   -0.0454   -5.7734 C   0  0  0  0  0  0  0  0  0  0  0  0
    1.6470   -1.4256   -5.8048 O   0  0  0  0  0  0  0  0  0  0  0  0
    2.0734   -6.2329   -5.5667 O   0  0  0  0  0  0  0  0  0  0  0  0
    0.5033   -8.1435   -4.3234 C   0  0  0  0  0  0  0  0  0  0  0  0
   -0.7839   -8.4465   -5.0968 C   0  0  0  0  0  0  0  0  0  0  0  0
   -1.9976   -7.9335   -4.3211 C   0  0  0  0  0  0  0  0  0  0  0  0
   -4.0407   -6.4795   -3.1087 O   0  0  0  0  0  0  0  0  0  0  0  0
   -2.9802   -0.6618   -1.6002 C   0  0  0  0  0  0  0  0  0  0  0  0
   -3.5747    0.6177   -1.6465 C   0  0  0  0  0  0  0  0  0  0  0  0
   -3.1570    1.5574   -2.5842 C   0  0  0  0  0  0  0  0  0  0  0  0
   -2.1851    1.1918   -3.4873 C   0  0  0  0  0  0  0  0  0  0  0  0
   -1.6050   -0.0914   -3.4844 C   0  0  0  0  0  0  0  0  0  0  0  0
   -1.9891   -1.0069   -2.5193 C   0  0  0  0  0  0  0  0  0  0  0  0
    2.3303   -0.1110    1.1499 F   0  0  0  0  0  0  0  0  0  0  0  0
   -2.8004    1.3867    3.5961 H   0  0  0  0  0  0  0  0  0  0  0  0
   -3.5213    1.4231    1.9842 H   0  0  0  0  0  0  0  0  0  0  0  0
   -4.5385    1.6372    3.4207 H   0  0  0  0  0  0  0  0  0  0  0  0
   -4.0077   -0.6877    4.1536 H   0  0  0  0  0  0  0  0  0  0  0  0
   -2.1885   -2.0645    4.2258 H   0  0  0  0  0  0  0  0  0  0  0  0
   -1.1012   -2.0457    2.8144 H   0  0  0  0  0  0  0  0  0  0  0  0
   -1.3255   -0.5703    3.7862 H   0  0  0  0  0  0  0  0  0  0  0  0
   -8.1452   -1.4033    3.7542 H   0  0  0  0  0  0  0  0  0  0  0  0
   -8.8340   -1.3658    1.3388 H   0  0  0  0  0  0  0  0  0  0  0  0
   -7.0697   -0.9470   -0.3623 H   0  0  0  0  0  0  0  0  0  0  0  0
   -5.7579    1.7091    0.6258 H   0  0  0  0  0  0  0  0  0  0  0  0
   -4.6700    2.7037   -0.3581 H   0  0  0  0  0  0  0  0  0  0  0  0
   -6.9805    2.9451   -1.1862 H   0  0  0  0  0  0  0  0  0  0  0  0
   -6.0263    2.0871   -2.4016 H   0  0  0  0  0  0  0  0  0  0  0  0
   -7.1460    1.1983   -1.3688 H   0  0  0  0  0  0  0  0  0  0  0  0
   -2.1366   -2.8971   -0.3502 H   0  0  0  0  0  0  0  0  0  0  0  0
   -3.2799   -2.8130    0.9922 H   0  0  0  0  0  0  0  0  0  0  0  0
   -3.5725   -5.2552    0.9581 H   0  0  0  0  0  0  0  0  0  0  0  0
   -3.9381   -6.0956   -0.5504 H   0  0  0  0  0  0  0  0  0  0  0  0
   -2.3621   -5.3290   -0.3247 H   0  0  0  0  0  0  0  0  0  0  0  0
   -5.5776   -3.6753    0.7428 H   0  0  0  0  0  0  0  0  0  0  0  0
   -5.9140   -2.9706   -0.8395 H   0  0  0  0  0  0  0  0  0  0  0  0
   -5.9995   -4.7198   -0.6171 H   0  0  0  0  0  0  0  0  0  0  0  0
   -4.8005   -4.4274   -2.6400 H   0  0  0  0  0  0  0  0  0  0  0  0
   -3.8255   -2.9309   -2.6200 H   0  0  0  0  0  0  0  0  0  0  0  0
   -1.7100   -5.8593   -4.8752 H   0  0  0  0  0  0  0  0  0  0  0  0
   -0.3918   -5.5511   -2.6485 H   0  0  0  0  0  0  0  0  0  0  0  0
   -0.0345   -4.2616   -4.0310 H   0  0  0  0  0  0  0  0  0  0  0  0
    2.7039   -3.3280   -4.2843 H   0  0  0  0  0  0  0  0  0  0  0  0
    3.6240   -2.5058   -2.4607 H   0  0  0  0  0  0  0  0  0  0  0  0
    3.6215   -4.8591   -0.5164 H   0  0  0  0  0  0  0  0  0  0  0  0
    6.0158   -4.3264   -0.2796 H   0  0  0  0  0  0  0  0  0  0  0  0
    5.8854   -3.0401   -1.4792 H   0  0  0  0  0  0  0  0  0  0  0  0
    5.1014   -2.8621    0.0856 H   0  0  0  0  0  0  0  0  0  0  0  0
    5.2383   -5.8607   -2.1168 H   0  0  0  0  0  0  0  0  0  0  0  0
    3.6372   -5.6931   -2.8270 H   0  0  0  0  0  0  0  0  0  0  0  0
    4.9194   -4.5590   -3.2595 H   0  0  0  0  0  0  0  0  0  0  0  0
   -0.2886   -0.2770   -0.8828 H   0  0  0  0  0  0  0  0  0  0  0  0
    0.0124   -1.2990    0.5239 H   0  0  0  0  0  0  0  0  0  0  0  0
   -1.5051    0.5696    1.0990 H   0  0  0  0  0  0  0  0  0  0  0  0
    0.0323    0.7057    1.9985 H   0  0  0  0  0  0  0  0  0  0  0  0
   -1.2505    6.9222   -0.0776 H   0  0  0  0  0  0  0  0  0  0  0  0
   -0.4545    8.4816   -0.3727 H   0  0  0  0  0  0  0  0  0  0  0  0
   -1.8622    8.0360   -1.3255 H   0  0  0  0  0  0  0  0  0  0  0  0
    1.2234    6.0553   -0.5047 H   0  0  0  0  0  0  0  0  0  0  0  0
    1.9429    6.5647   -2.0523 H   0  0  0  0  0  0  0  0  0  0  0  0
    1.5831    7.7648   -0.8197 H   0  0  0  0  0  0  0  0  0  0  0  0
   -2.7681    6.3983   -2.4388 H   0  0  0  0  0  0  0  0  0  0  0  0
   -1.8897    7.2322   -3.7359 H   0  0  0  0  0  0  0  0  0  0  0  0
   -2.2981    5.5159   -3.8822 H   0  0  0  0  0  0  0  0  0  0  0  0
    1.1939    4.9816   -3.2909 H   0  0  0  0  0  0  0  0  0  0  0  0
   -0.2010    4.7746   -4.3359 H   0  0  0  0  0  0  0  0  0  0  0  0
    0.6112    6.3456   -4.2637 H   0  0  0  0  0  0  0  0  0  0  0  0
    1.2382    3.3970   -0.1808 H   0  0  0  0  0  0  0  0  0  0  0  0
    1.6452    2.4165    1.2485 H   0  0  0  0  0  0  0  0  0  0  0  0
    2.9440    1.6082   -0.6714 H   0  0  0  0  0  0  0  0  0  0  0  0
    1.4755    1.4212   -1.6385 H   0  0  0  0  0  0  0  0  0  0  0  0
    1.8099   -2.1983    1.2528 H   0  0  0  0  0  0  0  0  0  0  0  0
    1.4945   -3.6969    0.3544 H   0  0  0  0  0  0  0  0  0  0  0  0
    3.1017   -3.3644    1.0409 H   0  0  0  0  0  0  0  0  0  0  0  0
    1.7097   -3.7703   -6.4846 H   0  0  0  0  0  0  0  0  0  0  0  0
   -0.0111   -4.1615   -6.5072 H   0  0  0  0  0  0  0  0  0  0  0  0
   -0.1324   -1.8594   -6.7192 H   0  0  0  0  0  0  0  0  0  0  0  0
   -1.3318   -2.3967   -4.6271 H   0  0  0  0  0  0  0  0  0  0  0  0
    0.1858   -2.1372   -3.6968 H   0  0  0  0  0  0  0  0  0  0  0  0
    0.3194    1.4035   -4.5643 H   0  0  0  0  0  0  0  0  0  0  0  0
    1.1568    0.1155   -3.6514 H   0  0  0  0  0  0  0  0  0  0  0  0
    0.8120    0.2357   -6.6851 H   0  0  0  0  0  0  0  0  0  0  0  0
    2.3275    0.4631   -5.7568 H   0  0  0  0  0  0  0  0  0  0  0  0
    1.3878   -8.3739   -4.9168 H   0  0  0  0  0  0  0  0  0  0  0  0
    0.5243   -8.6961   -3.3823 H   0  0  0  0  0  0  0  0  0  0  0  0
   -0.7327   -7.9517   -6.0698 H   0  0  0  0  0  0  0  0  0  0  0  0
   -0.8702   -9.5197   -5.2647 H   0  0  0  0  0  0  0  0  0  0  0  0
   -2.1176   -8.5011   -3.3979 H   0  0  0  0  0  0  0  0  0  0  0  0
   -2.9088   -8.0410   -4.9088 H   0  0  0  0  0  0  0  0  0  0  0  0
   -3.5746    2.5522   -2.6070 H   0  0  0  0  0  0  0  0  0  0  0  0
   -1.8674    1.8992   -4.2385 H   0  0  0  0  0  0  0  0  0  0  0  0
   -1.5488   -1.9880   -2.4509 H   0  0  0  0  0  0  0  0  0  0  0  0
  1  2  1  0  0  0  0
  2  3  1  0  0  0  0
  2  5  1  0  0  0  0
  3  4  1  0  0  0  0
  5  6  2  0  0  0  0
  5 10  1  0  0  0  0
  6  7  1  0  0  0  0
  7  8  2  0  0  0  0
  8  9  1  0  0  0  0
  9 10  2  0  0  0  0
 10 11  1  0  0  0  0
 11 12  1  0  0  0  0
 11 15  2  0  0  0  0
 12 13  1  0  0  0  0
 12 68  1  0  0  0  0
 13 14  1  0  0  0  0
 15 16  1  0  0  0  0
 15 67  1  0  0  0  0
 16 17  1  0  0  0  0
 17 18  1  0  0  0  0
 17 19  1  0  0  0  0
 17 20  1  0  0  0  0
 20 21  1  0  0  0  0
 21 22  1  0  0  0  0
 22 23  1  0  0  0  0
 22 66  2  0  0  0  0
 23 24  1  0  0  0  0
 23 65  1  0  0  0  0
 24 25  1  0  0  0  0
 25 26  1  0  0  0  0
 25 63  1  0  0  0  0
 26 27  1  0  0  0  0
 26 62  2  0  0  0  0
 27 28  1  0  0  0  0
 27 55  1  0  0  0  0
 28 29  1  0  0  0  0
 29 30  1  0  0  0  0
 29 54  2  0  0  0  0
 30 31  1  0  0  0  0
 30 34  1  0  0  0  0
 31 32  1  0  0  0  0
 31 33  1  0  0  0  0
 34 35  1  0  0  0  0
 34 53  1  0  0  0  0
 35 36  1  0  0  0  0
 35 52  2  0  0  0  0
 36 37  1  0  0  0  0
 36 51  1  0  0  0  0
 36 73  1  0  0  0  0
 37 38  1  0  0  0  0
 38 39  1  0  0  0  0
 39 40  1  0  0  0  0
 39 50  1  0  0  0  0
 40 41  1  0  0  0  0
 40 49  2  0  0  0  0
 42 43  1  0  0  0  0
 43 44  1  0  0  0  0
 43 47  1  0  0  0  0
 43 48  1  0  0  0  0
 44 45  1  0  0  0  0
 44 46  1  0  0  0  0
 50 51  1  0  0  0  0
 55 56  1  0  0  0  0
 56 57  1  0  0  0  0
 56 61  1  0  0  0  0
 57 58  1  0  0  0  0
 58 59  1  0  0  0  0
 58 71  1  0  0  0  0
 59 60  1  0  0  0  0
 60 61  1  0  0  0  0
 63 64  1  0  0  0  0
 64 65  1  0  0  0  0
 67 68  2  0  0  0  0
 67 72  1  0  0  0  0
 68 69  1  0  0  0  0
 69 70  2  0  0  0  0
 70 71  1  0  0  0  0
 71 72  2  0  0  0  0
 41 42  3  0  0  0  0
  1 74  1  0  0  0  0
  1 75  1  0  0  0  0
  1 76  1  0  0  0  0
  2 77  1  0  0  0  0
  4 78  1  0  0  0  0
  4 79  1  0  0  0  0
  4 80  1  0  0  0  0
  7 81  1  0  0  0  0
  8 82  1  0  0  0  0
  9 83  1  0  0  0  0
 13 84  1  0  0  0  0
 13 85  1  0  0  0  0
 14 86  1  0  0  0  0
 14 87  1  0  0  0  0
 14 88  1  0  0  0  0
 16 89  1  0  0  0  0
 16 90  1  0  0  0  0
 18 91  1  0  0  0  0
 18 92  1  0  0  0  0
 18 93  1  0  0  0  0
 19 94  1  0  0  0  0
 19 95  1  0  0  0  0
 19 96  1  0  0  0  0
 20 97  1  0  0  0  0
 20 98  1  0  0  0  0
 23 99  1  0  0  0  0
 24100  1  0  0  0  0
 27101  1  0  0  0  0
 28102  1  0  0  0  0
 30103  1  0  0  0  0
 31104  1  0  0  0  0
 32105  1  0  0  0  0
 32106  1  0  0  0  0
 32107  1  0  0  0  0
 33108  1  0  0  0  0
 33109  1  0  0  0  0
 33110  1  0  0  0  0
 37111  1  0  0  0  0
 37112  1  0  0  0  0
 38113  1  0  0  0  0
 38114  1  0  0  0  0
 45115  1  0  0  0  0
 45116  1  0  0  0  0
 45117  1  0  0  0  0
 46118  1  0  0  0  0
 46119  1  0  0  0  0
 46120  1  0  0  0  0
 47121  1  0  0  0  0
 47122  1  0  0  0  0
 47123  1  0  0  0  0
 48124  1  0  0  0  0
 48125  1  0  0  0  0
 48126  1  0  0  0  0
 50127  1  0  0  0  0
 50128  1  0  0  0  0
 51129  1  0  0  0  0
 51130  1  0  0  0  0
 53131  1  0  0  0  0
 53132  1  0  0  0  0
 53133  1  0  0  0  0
 55134  1  0  0  0  0
 55135  1  0  0  0  0
 56136  1  0  0  0  0
 57137  1  0  0  0  0
 57138  1  0  0  0  0
 59139  1  0  0  0  0
 59140  1  0  0  0  0
 60141  1  0  0  0  0
 60142  1  0  0  0  0
 63143  1  0  0  0  0
 63144  1  0  0  0  0
 64145  1  0  0  0  0
 64146  1  0  0  0  0
 65147  1  0  0  0  0
 65148  1  0  0  0  0
 69149  1  0  0  0  0
 70150  1  0  0  0  0
 72151  1  0  0  0  0
M  END
$$$$
