 xtb: 6.7.1 (edcfbbe)
          08072518083D

151157  0     0  0            999 V2000
   15.8032   23.1237   61.7194 C   0  0  0  0  0  0  0  0  0  0  0  0
   15.3540   24.5106   61.2559 C   0  0  0  0  0  0  0  0  0  0  0  0
   15.4603   25.4896   62.2789 O   0  0  0  0  0  0  0  0  0  0  0  0
   16.7730   25.8937   62.5686 C   0  0  0  0  0  0  0  0  0  0  0  0
   13.8939   24.4818   60.8497 C   0  0  0  0  0  0  0  0  0  0  0  0
   13.0910   23.7671   61.6208 N   0  0  0  0  0  0  0  0  0  0  0  0
   11.8072   23.6913   61.3302 C   0  0  0  0  0  0  0  0  0  0  0  0
   11.2431   24.3155   60.2280 C   0  0  0  0  0  0  0  0  0  0  0  0
   12.0744   25.0607   59.4122 C   0  0  0  0  0  0  0  0  0  0  0  0
   13.4301   25.1707   59.7211 C   0  0  0  0  0  0  0  0  0  0  0  0
   14.3166   25.9565   58.8551 C   0  0  0  0  0  0  0  0  0  0  0  0
   14.6177   25.5177   57.5834 N   0  0  0  0  0  0  0  0  0  0  0  0
   14.2831   24.2317   57.0328 C   0  0  0  0  0  0  0  0  0  0  0  0
   15.3462   23.1844   57.3636 C   0  0  0  0  0  0  0  0  0  0  0  0
   14.9278   27.1643   59.1000 C   0  0  0  0  0  0  0  0  0  0  0  0
   14.7924   27.9787   60.3457 C   0  0  0  0  0  0  0  0  0  0  0  0
   13.6827   29.0561   60.3137 C   0  0  0  0  0  0  0  0  0  0  0  0
   12.3777   28.4890   59.7572 C   0  0  0  0  0  0  0  0  0  0  0  0
   13.4505   29.5588   61.7406 C   0  0  0  0  0  0  0  0  0  0  0  0
   14.1050   30.2335   59.4293 C   0  0  0  0  0  0  0  0  0  0  0  0
   15.2517   30.8716   60.0011 O   0  0  0  0  0  0  0  0  0  0  0  0
   15.8215   31.8274   59.2836 C   0  0  0  0  0  0  0  0  0  0  0  0
   17.0649   32.3832   59.9627 C   0  0  0  0  0  0  0  0  0  0  0  0
   17.3105   33.7519   59.5428 N   0  0  0  0  0  0  0  0  0  0  0  0
   18.6194   34.1099   59.8723 N   0  0  0  0  0  0  0  0  0  0  0  0
   19.7171   33.8651   59.1202 C   0  0  0  0  0  0  0  0  0  0  0  0
   19.4629   33.3409   57.6922 C   0  0  0  0  0  0  0  0  0  0  0  0
   19.6664   34.4170   56.7475 N   0  0  0  0  0  0  0  0  0  0  0  0
   18.6620   35.2425   56.4291 C   0  0  0  0  0  0  0  0  0  0  0  0
   19.0214   36.2474   55.3326 C   0  0  0  0  0  0  0  0  0  0  0  0
   18.3372   37.6051   55.5291 C   0  0  0  0  0  0  0  0  0  0  0  0
   18.7240   38.5633   54.4052 C   0  0  0  0  0  0  0  0  0  0  0  0
   18.7631   38.1785   56.8799 C   0  0  0  0  0  0  0  0  0  0  0  0
   18.6917   35.6019   54.0594 N   0  0  0  0  0  0  0  0  0  0  0  0
   19.7127   35.0178   53.4074 C   0  0  0  0  0  0  0  0  0  0  0  0
   19.4839   34.4362   51.9972 C   0  0  0  0  0  0  0  0  0  0  0  0
   19.1924   35.5684   51.0074 C   0  0  0  0  0  0  0  0  0  0  0  0
   19.0914   35.0143   49.5840 C   0  0  0  0  0  0  0  0  0  0  0  0
   20.2792   34.2705   49.2444 N   0  0  0  0  0  0  0  0  0  0  0  0
   21.1050   34.7179   48.2651 C   0  0  0  0  0  0  0  0  0  0  0  0
   22.2811   33.9124   48.0439 C   0  0  0  0  0  0  0  0  0  0  0  0
   23.2757   33.3251   47.7022 C   0  0  0  0  0  0  0  0  0  0  0  0
   24.5488   32.6519   47.4489 C   0  0  0  0  0  0  0  0  0  0  0  0
   25.6180   33.2358   48.2769 N   0  0  0  0  0  0  0  0  0  0  0  0
   25.3968   33.0930   49.7038 C   0  0  0  0  0  0  0  0  0  0  0  0
   25.9145   34.6202   47.9529 C   0  0  0  0  0  0  0  0  0  0  0  0
   24.4013   31.1543   47.7653 C   0  0  0  0  0  0  0  0  0  0  0  0
   24.8948   32.7977   45.9589 C   0  0  0  0  0  0  0  0  0  0  0  0
   20.8748   35.7141   47.6031 O   0  0  0  0  0  0  0  0  0  0  0  0
   20.5534   33.1592   50.1190 C   0  0  0  0  0  0  0  0  0  0  0  0
   20.7202   33.6489   51.5588 C   0  0  0  0  0  0  0  0  0  0  0  0
   20.8525   35.0321   53.8510 O   0  0  0  0  0  0  0  0  0  0  0  0
   17.2788   35.4845   53.7694 C   0  0  0  0  0  0  0  0  0  0  0  0
   17.5492   35.1668   56.9244 O   0  0  0  0  0  0  0  0  0  0  0  0
   20.3808   32.1524   57.4040 C   0  0  0  0  0  0  0  0  0  0  0  0
   19.7775   31.1808   56.3861 C   0  0  0  0  0  0  0  0  0  0  0  0
   18.5628   30.4252   56.9506 C   0  0  0  0  0  0  0  0  0  0  0  0
   18.0528   29.5294   55.9348 N   0  0  0  0  0  0  0  0  0  0  0  0
   17.6701   30.2969   54.7602 C   0  0  0  0  0  0  0  0  0  0  0  0
   18.8948   31.0476   54.2425 C   0  0  0  0  0  0  0  0  0  0  0  0
   19.4261   31.9050   55.2251 O   0  0  0  0  0  0  0  0  0  0  0  0
   20.8432   34.0928   59.5225 O   0  0  0  0  0  0  0  0  0  0  0  0
   18.7241   34.2816   61.3097 C   0  0  0  0  0  0  0  0  0  0  0  0
   18.3768   32.9545   61.9973 C   0  0  0  0  0  0  0  0  0  0  0  0
   17.0344   32.4123   61.4941 C   0  0  0  0  0  0  0  0  0  0  0  0
   15.4572   32.1738   58.1895 O   0  0  0  0  0  0  0  0  0  0  0  0
   15.6874   27.4736   57.9307 C   0  0  0  0  0  0  0  0  0  0  0  0
   15.4738   26.4200   57.0121 C   0  0  0  0  0  0  0  0  0  0  0  0
   16.0899   26.4182   55.7659 C   0  0  0  0  0  0  0  0  0  0  0  0
   16.9119   27.4724   55.4497 C   0  0  0  0  0  0  0  0  0  0  0  0
   17.1453   28.5337   56.3459 C   0  0  0  0  0  0  0  0  0  0  0  0
   16.5380   28.5279   57.5895 C   0  0  0  0  0  0  0  0  0  0  0  0
   18.4086   33.5441   51.9802 F   0  0  0  0  0  0  0  0  0  0  0  0
   15.2326   22.8445   62.5999 H   0  0  0  0  0  0  0  0  0  0  0  0
   15.6164   22.3956   60.9342 H   0  0  0  0  0  0  0  0  0  0  0  0
   16.8646   23.1192   61.9535 H   0  0  0  0  0  0  0  0  0  0  0  0
   15.9626   24.8330   60.3930 H   0  0  0  0  0  0  0  0  0  0  0  0
   16.6859   26.7367   63.2519 H   0  0  0  0  0  0  0  0  0  0  0  0
   17.3522   25.1006   63.0528 H   0  0  0  0  0  0  0  0  0  0  0  0
   17.2971   26.2140   61.6590 H   0  0  0  0  0  0  0  0  0  0  0  0
   11.2103   23.0950   62.0076 H   0  0  0  0  0  0  0  0  0  0  0  0
   10.1897   24.2220   60.0146 H   0  0  0  0  0  0  0  0  0  0  0  0
   11.6814   25.5704   58.5431 H   0  0  0  0  0  0  0  0  0  0  0  0
   13.3172   23.9142   57.4345 H   0  0  0  0  0  0  0  0  0  0  0  0
   14.1873   24.3381   55.9488 H   0  0  0  0  0  0  0  0  0  0  0  0
   15.4129   23.0472   58.4407 H   0  0  0  0  0  0  0  0  0  0  0  0
   15.0909   22.2328   56.9053 H   0  0  0  0  0  0  0  0  0  0  0  0
   16.3173   23.5047   56.9935 H   0  0  0  0  0  0  0  0  0  0  0  0
   14.5776   27.3043   61.1760 H   0  0  0  0  0  0  0  0  0  0  0  0
   15.7395   28.4815   60.5527 H   0  0  0  0  0  0  0  0  0  0  0  0
   12.0653   27.6318   60.3476 H   0  0  0  0  0  0  0  0  0  0  0  0
   11.5912   29.2396   59.7945 H   0  0  0  0  0  0  0  0  0  0  0  0
   12.5047   28.1752   58.7240 H   0  0  0  0  0  0  0  0  0  0  0  0
   14.3704   29.9620   62.1550 H   0  0  0  0  0  0  0  0  0  0  0  0
   12.6961   30.3427   61.7504 H   0  0  0  0  0  0  0  0  0  0  0  0
   13.1111   28.7434   62.3744 H   0  0  0  0  0  0  0  0  0  0  0  0
   14.3496   29.8973   58.4166 H   0  0  0  0  0  0  0  0  0  0  0  0
   13.3002   30.9732   59.3570 H   0  0  0  0  0  0  0  0  0  0  0  0
   17.8894   31.7078   59.6481 H   0  0  0  0  0  0  0  0  0  0  0  0
   17.0631   33.9812   58.5814 H   0  0  0  0  0  0  0  0  0  0  0  0
   18.4195   33.0369   57.5803 H   0  0  0  0  0  0  0  0  0  0  0  0
   20.5407   34.4614   56.2453 H   0  0  0  0  0  0  0  0  0  0  0  0
   20.1049   36.4007   55.3265 H   0  0  0  0  0  0  0  0  0  0  0  0
   17.2534   37.4658   55.5451 H   0  0  0  0  0  0  0  0  0  0  0  0
   18.2285   39.5213   54.5423 H   0  0  0  0  0  0  0  0  0  0  0  0
   19.7992   38.7297   54.4089 H   0  0  0  0  0  0  0  0  0  0  0  0
   18.4469   38.1712   53.4299 H   0  0  0  0  0  0  0  0  0  0  0  0
   18.4500   37.5243   57.6890 H   0  0  0  0  0  0  0  0  0  0  0  0
   19.8443   38.2931   56.9244 H   0  0  0  0  0  0  0  0  0  0  0  0
   18.3067   39.1534   57.0315 H   0  0  0  0  0  0  0  0  0  0  0  0
   18.2592   36.0667   51.2688 H   0  0  0  0  0  0  0  0  0  0  0  0
   20.0071   36.2915   51.0705 H   0  0  0  0  0  0  0  0  0  0  0  0
   18.2211   34.3514   49.5112 H   0  0  0  0  0  0  0  0  0  0  0  0
   18.9887   35.8276   48.8628 H   0  0  0  0  0  0  0  0  0  0  0  0
   26.2501   33.5243   50.2252 H   0  0  0  0  0  0  0  0  0  0  0  0
   24.4854   33.6010   50.0529 H   0  0  0  0  0  0  0  0  0  0  0  0
   25.3415   32.0416   49.9737 H   0  0  0  0  0  0  0  0  0  0  0  0
   26.6980   34.9672   48.6250 H   0  0  0  0  0  0  0  0  0  0  0  0
   26.2929   34.6946   46.9368 H   0  0  0  0  0  0  0  0  0  0  0  0
   25.0445   35.2832   48.0615 H   0  0  0  0  0  0  0  0  0  0  0  0
   23.9433   30.9903   48.7370 H   0  0  0  0  0  0  0  0  0  0  0  0
   23.7699   30.6824   47.0165 H   0  0  0  0  0  0  0  0  0  0  0  0
   25.3822   30.6868   47.7475 H   0  0  0  0  0  0  0  0  0  0  0  0
   25.9169   32.4681   45.7916 H   0  0  0  0  0  0  0  0  0  0  0  0
   24.2225   32.1824   45.3660 H   0  0  0  0  0  0  0  0  0  0  0  0
   24.7851   33.8252   45.6241 H   0  0  0  0  0  0  0  0  0  0  0  0
   19.7133   32.4550   50.0702 H   0  0  0  0  0  0  0  0  0  0  0  0
   21.4590   32.6507   49.7843 H   0  0  0  0  0  0  0  0  0  0  0  0
   21.5894   34.3000   51.6451 H   0  0  0  0  0  0  0  0  0  0  0  0
   20.8585   32.8040   52.2343 H   0  0  0  0  0  0  0  0  0  0  0  0
   16.7497   35.2899   54.7033 H   0  0  0  0  0  0  0  0  0  0  0  0
   16.8920   36.4106   53.3370 H   0  0  0  0  0  0  0  0  0  0  0  0
   17.0739   34.6640   53.0933 H   0  0  0  0  0  0  0  0  0  0  0  0
   21.3336   32.5273   57.0286 H   0  0  0  0  0  0  0  0  0  0  0  0
   20.5819   31.6104   58.3297 H   0  0  0  0  0  0  0  0  0  0  0  0
   20.5377   30.4250   56.1182 H   0  0  0  0  0  0  0  0  0  0  0  0
   18.8830   29.8375   57.8140 H   0  0  0  0  0  0  0  0  0  0  0  0
   17.7896   31.1469   57.2589 H   0  0  0  0  0  0  0  0  0  0  0  0
   17.2904   29.6308   53.9867 H   0  0  0  0  0  0  0  0  0  0  0  0
   16.8848   31.0286   55.0150 H   0  0  0  0  0  0  0  0  0  0  0  0
   19.6619   30.3206   53.9319 H   0  0  0  0  0  0  0  0  0  0  0  0
   18.6238   31.6796   53.3979 H   0  0  0  0  0  0  0  0  0  0  0  0
   19.7424   34.5914   61.5437 H   0  0  0  0  0  0  0  0  0  0  0  0
   18.0166   35.0596   61.6031 H   0  0  0  0  0  0  0  0  0  0  0  0
   19.1653   32.2303   61.7775 H   0  0  0  0  0  0  0  0  0  0  0  0
   18.3418   33.1008   63.0769 H   0  0  0  0  0  0  0  0  0  0  0  0
   16.2260   33.0724   61.8096 H   0  0  0  0  0  0  0  0  0  0  0  0
   16.8517   31.4151   61.8938 H   0  0  0  0  0  0  0  0  0  0  0  0
   15.9429   25.6108   55.0641 H   0  0  0  0  0  0  0  0  0  0  0  0
   17.4191   27.4817   54.4972 H   0  0  0  0  0  0  0  0  0  0  0  0
   16.7115   29.3195   58.3004 H   0  0  0  0  0  0  0  0  0  0  0  0
  1  2  1  0  0  0  0
  2  3  1  0  0  0  0
  3  4  1  0  0  0  0
  2  5  1  0  0  0  0
  5  6  4  0  0  0  0
  6  7  4  0  0  0  0
  7  8  4  0  0  0  0
  8  9  4  0  0  0  0
  5 10  4  0  0  0  0
  9 10  4  0  0  0  0
 10 11  1  0  0  0  0
 11 12  1  0  0  0  0
 12 13  1  0  0  0  0
 13 14  1  0  0  0  0
 11 15  2  0  0  0  0
 15 16  1  0  0  0  0
 16 17  1  0  0  0  0
 17 18  1  0  0  0  0
 17 19  1  0  0  0  0
 17 20  1  0  0  0  0
 20 21  1  0  0  0  0
 21 22  1  0  0  0  0
 22 23  1  0  0  0  0
 23 24  1  0  0  0  0
 24 25  1  0  0  0  0
 25 26  4  0  0  0  0
 26 27  1  0  0  0  0
 27 28  1  0  0  0  0
 28 29  4  0  0  0  0
 29 30  1  0  0  0  0
 30 31  1  0  0  0  0
 31 32  1  0  0  0  0
 31 33  1  0  0  0  0
 30 34  1  0  0  0  0
 34 35  4  0  0  0  0
 35 36  1  0  0  0  0
 36 37  1  0  0  0  0
 37 38  1  0  0  0  0
 38 39  1  0  0  0  0
 39 40  4  0  0  0  0
 40 41  1  0  0  0  0
 41 42  3  0  0  0  0
 42 43  1  0  0  0  0
 43 44  1  0  0  0  0
 44 45  1  0  0  0  0
 44 46  1  0  0  0  0
 43 47  1  0  0  0  0
 43 48  1  0  0  0  0
 40 49  2  0  0  0  0
 39 50  1  0  0  0  0
 36 51  1  0  0  0  0
 50 51  1  0  0  0  0
 35 52  2  0  0  0  0
 34 53  1  0  0  0  0
 29 54  2  0  0  0  0
 27 55  1  0  0  0  0
 55 56  1  0  0  0  0
 56 57  1  0  0  0  0
 57 58  1  0  0  0  0
 58 59  1  0  0  0  0
 59 60  1  0  0  0  0
 56 61  1  0  0  0  0
 60 61  1  0  0  0  0
 26 62  2  0  0  0  0
 25 63  1  0  0  0  0
 63 64  1  0  0  0  0
 23 65  1  0  0  0  0
 64 65  1  0  0  0  0
 22 66  2  0  0  0  0
 15 67  4  0  0  0  0
 12 68  1  0  0  0  0
 67 68  4  0  0  0  0
 68 69  4  0  0  0  0
 69 70  2  0  0  0  0
 58 71  1  0  0  0  0
 70 71  4  0  0  0  0
 67 72  4  0  0  0  0
 71 72  4  0  0  0  0
 36 73  1  0  0  0  0
  1 74  1  0  0  0  0
  1 75  1  0  0  0  0
  1 76  1  0  0  0  0
  2 77  1  0  0  0  0
  4 78  1  0  0  0  0
  4 79  1  0  0  0  0
  4 80  1  0  0  0  0
  7 81  1  0  0  0  0
  8 82  1  0  0  0  0
  9 83  1  0  0  0  0
 13 84  1  0  0  0  0
 13 85  1  0  0  0  0
 14 86  1  0  0  0  0
 14 87  1  0  0  0  0
 14 88  1  0  0  0  0
 16 89  1  0  0  0  0
 16 90  1  0  0  0  0
 18 91  1  0  0  0  0
 18 92  1  0  0  0  0
 18 93  1  0  0  0  0
 19 94  1  0  0  0  0
 19 95  1  0  0  0  0
 19 96  1  0  0  0  0
 20 97  1  0  0  0  0
 20 98  1  0  0  0  0
 23 99  1  0  0  0  0
 24100  1  0  0  0  0
 27101  1  0  0  0  0
 28102  1  0  0  0  0
 30103  1  0  0  0  0
 31104  1  0  0  0  0
 32105  1  0  0  0  0
 32106  1  0  0  0  0
 32107  1  0  0  0  0
 33108  1  0  0  0  0
 33109  1  0  0  0  0
 33110  1  0  0  0  0
 37111  1  0  0  0  0
 37112  1  0  0  0  0
 38113  1  0  0  0  0
 38114  1  0  0  0  0
 45115  1  0  0  0  0
 45116  1  0  0  0  0
 45117  1  0  0  0  0
 46118  1  0  0  0  0
 46119  1  0  0  0  0
 46120  1  0  0  0  0
 47121  1  0  0  0  0
 47122  1  0  0  0  0
 47123  1  0  0  0  0
 48124  1  0  0  0  0
 48125  1  0  0  0  0
 48126  1  0  0  0  0
 50127  1  0  0  0  0
 50128  1  0  0  0  0
 51129  1  0  0  0  0
 51130  1  0  0  0  0
 53131  1  0  0  0  0
 53132  1  0  0  0  0
 53133  1  0  0  0  0
 55134  1  0  0  0  0
 55135  1  0  0  0  0
 56136  1  0  0  0  0
 57137  1  0  0  0  0
 57138  1  0  0  0  0
 59139  1  0  0  0  0
 59140  1  0  0  0  0
 60141  1  0  0  0  0
 60142  1  0  0  0  0
 63143  1  0  0  0  0
 63144  1  0  0  0  0
 64145  1  0  0  0  0
 64146  1  0  0  0  0
 65147  1  0  0  0  0
 65148  1  0  0  0  0
 69149  1  0  0  0  0
 70150  1  0  0  0  0
 72151  1  0  0  0  0
M  END
