 energy: -221.290270250518 gnorm: 0.000291360991 xtb: 6.7.1 (edcfbbe)
          08232519373D

151157  0     0  0            999 V2000
   -1.5979   -5.7407   -0.3295 C   0  0  0  0  0  0  0  0  0  0  0  0
   -2.2902   -5.1945    0.9272 C   0  0  0  0  0  0  0  0  0  0  0  0
   -2.5257   -3.8023    0.8573 O   0  0  0  0  0  0  0  0  0  0  0  0
   -3.7109   -3.4465    0.1971 C   0  0  0  0  0  0  0  0  0  0  0  0
   -1.4596   -5.5402    2.1436 C   0  0  0  0  0  0  0  0  0  0  0  0
   -1.8614   -6.6568    2.7388 N   0  0  0  0  0  0  0  0  0  0  0  0
   -1.1840   -7.1376    3.7631 C   0  0  0  0  0  0  0  0  0  0  0  0
   -0.0414   -6.5306    4.2579 C   0  0  0  0  0  0  0  0  0  0  0  0
    0.3752   -5.3607    3.6520 C   0  0  0  0  0  0  0  0  0  0  0  0
   -0.3379   -4.8252    2.5778 C   0  0  0  0  0  0  0  0  0  0  0  0
    0.1596   -3.5757    1.9813 C   0  0  0  0  0  0  0  0  0  0  0  0
    1.2895   -3.6061    1.1925 N   0  0  0  0  0  0  0  0  0  0  0  0
    2.0145   -4.7739    0.7596 C   0  0  0  0  0  0  0  0  0  0  0  0
    3.3268   -4.9498    1.5231 C   0  0  0  0  0  0  0  0  0  0  0  0
   -0.2528   -2.2764    2.1729 C   0  0  0  0  0  0  0  0  0  0  0  0
   -1.4588   -1.7757    2.9044 C   0  0  0  0  0  0  0  0  0  0  0  0
   -1.2635   -1.3998    4.3905 C   0  0  0  0  0  0  0  0  0  0  0  0
   -2.6305   -1.0583    4.9885 C   0  0  0  0  0  0  0  0  0  0  0  0
   -0.6549   -2.5733    5.1590 C   0  0  0  0  0  0  0  0  0  0  0  0
   -0.3014   -0.2075    4.5579 C   0  0  0  0  0  0  0  0  0  0  0  0
   -0.8917    1.0816    4.3358 O   0  0  0  0  0  0  0  0  0  0  0  0
   -1.2330    1.7774    5.4176 C   0  0  0  0  0  0  0  0  0  0  0  0
   -1.6564    3.2003    5.0692 C   0  0  0  0  0  0  0  0  0  0  0  0
   -2.6581    3.2751    4.0156 N   0  0  0  0  0  0  0  0  0  0  0  0
   -2.7934    4.6053    3.5983 N   0  0  0  0  0  0  0  0  0  0  0  0
   -2.0437    5.2264    2.6590 C   0  0  0  0  0  0  0  0  0  0  0  0
   -1.1018    4.3207    1.8438 C   0  0  0  0  0  0  0  0  0  0  0  0
   -1.6937    4.0537    0.5473 N   0  0  0  0  0  0  0  0  0  0  0  0
   -2.4963    2.9981    0.3540 C   0  0  0  0  0  0  0  0  0  0  0  0
   -2.9858    2.8197   -1.0849 C   0  0  0  0  0  0  0  0  0  0  0  0
   -4.4064    3.3853   -1.2668 C   0  0  0  0  0  0  0  0  0  0  0  0
   -4.8235    3.2732   -2.7319 C   0  0  0  0  0  0  0  0  0  0  0  0
   -4.4543    4.8456   -0.8203 C   0  0  0  0  0  0  0  0  0  0  0  0
   -2.8815    1.4104   -1.4569 N   0  0  0  0  0  0  0  0  0  0  0  0
   -1.8439    1.0717   -2.2402 C   0  0  0  0  0  0  0  0  0  0  0  0
   -1.6427   -0.3941   -2.6636 C   0  0  0  0  0  0  0  0  0  0  0  0
   -0.9249   -1.1746   -1.5581 C   0  0  0  0  0  0  0  0  0  0  0  0
   -0.6220   -2.5973   -2.0219 C   0  0  0  0  0  0  0  0  0  0  0  0
    0.1590   -2.5719   -3.2338 N   0  0  0  0  0  0  0  0  0  0  0  0
    1.3896   -3.1282   -3.2704 C   0  0  0  0  0  0  0  0  0  0  0  0
    2.1222   -2.9328   -4.4971 C   0  0  0  0  0  0  0  0  0  0  0  0
    2.8951   -2.8555   -5.4169 C   0  0  0  0  0  0  0  0  0  0  0  0
    3.7189   -2.7000   -6.6120 C   0  0  0  0  0  0  0  0  0  0  0  0
    5.0220   -3.3216   -6.3610 N   0  0  0  0  0  0  0  0  0  0  0  0
    4.9544   -4.6752   -5.8516 C   0  0  0  0  0  0  0  0  0  0  0  0
    5.9682   -3.2361   -7.4507 C   0  0  0  0  0  0  0  0  0  0  0  0
    2.9358   -3.3065   -7.7969 C   0  0  0  0  0  0  0  0  0  0  0  0
    3.8965   -1.1864   -6.8284 C   0  0  0  0  0  0  0  0  0  0  0  0
    1.8659   -3.7653   -2.3444 O   0  0  0  0  0  0  0  0  0  0  0  0
   -0.4732   -1.8807   -4.3281 C   0  0  0  0  0  0  0  0  0  0  0  0
   -0.8018   -0.4379   -3.9441 C   0  0  0  0  0  0  0  0  0  0  0  0
   -1.0176    1.8949   -2.6124 O   0  0  0  0  0  0  0  0  0  0  0  0
   -3.8542    0.5046   -0.8859 C   0  0  0  0  0  0  0  0  0  0  0  0
   -2.8015    2.2379    1.2616 O   0  0  0  0  0  0  0  0  0  0  0  0
    0.2727    4.9680    1.6856 C   0  0  0  0  0  0  0  0  0  0  0  0
    1.2562    4.1217    0.8603 C   0  0  0  0  0  0  0  0  0  0  0  0
    1.0224    2.6213    1.0471 C   0  0  0  0  0  0  0  0  0  0  0  0
    1.9257    1.8224    0.2421 N   0  0  0  0  0  0  0  0  0  0  0  0
    1.8415    2.2361   -1.1562 C   0  0  0  0  0  0  0  0  0  0  0  0
    2.0560    3.7438   -1.2732 C   0  0  0  0  0  0  0  0  0  0  0  0
    1.1203    4.4662   -0.5051 O   0  0  0  0  0  0  0  0  0  0  0  0
   -2.1555    6.4134    2.4145 O   0  0  0  0  0  0  0  0  0  0  0  0
   -3.4672    5.3782    4.6259 C   0  0  0  0  0  0  0  0  0  0  0  0
   -2.6018    5.3663    5.8904 C   0  0  0  0  0  0  0  0  0  0  0  0
   -2.2524    3.9290    6.2789 C   0  0  0  0  0  0  0  0  0  0  0  0
   -1.1308    1.3837    6.5495 O   0  0  0  0  0  0  0  0  0  0  0  0
    0.6648   -1.4636    1.4434 C   0  0  0  0  0  0  0  0  0  0  0  0
    1.6083   -2.3240    0.8423 C   0  0  0  0  0  0  0  0  0  0  0  0
    2.6258   -1.8144    0.0417 C   0  0  0  0  0  0  0  0  0  0  0  0
    2.6921   -0.4514   -0.1357 C   0  0  0  0  0  0  0  0  0  0  0  0
    1.7610    0.4285    0.4503 C   0  0  0  0  0  0  0  0  0  0  0  0
    0.7422   -0.0867    1.2345 C   0  0  0  0  0  0  0  0  0  0  0  0
   -2.8685   -0.9983   -2.9486 F   0  0  0  0  0  0  0  0  0  0  0  0
   -0.6502   -5.2343   -0.4877 H   0  0  0  0  0  0  0  0  0  0  0  0
   -1.4208   -6.8058   -0.2078 H   0  0  0  0  0  0  0  0  0  0  0  0
   -2.2278   -5.5906   -1.2030 H   0  0  0  0  0  0  0  0  0  0  0  0
   -3.2484   -5.7235    1.0524 H   0  0  0  0  0  0  0  0  0  0  0  0
   -3.8706   -2.3894    0.4032 H   0  0  0  0  0  0  0  0  0  0  0  0
   -3.6469   -3.5980   -0.8868 H   0  0  0  0  0  0  0  0  0  0  0  0
   -4.5672   -4.0160    0.5793 H   0  0  0  0  0  0  0  0  0  0  0  0
   -1.5761   -8.0490    4.1949 H   0  0  0  0  0  0  0  0  0  0  0  0
    0.5004   -6.9545    5.0889 H   0  0  0  0  0  0  0  0  0  0  0  0
    1.2559   -4.8462    4.0091 H   0  0  0  0  0  0  0  0  0  0  0  0
    1.3808   -5.6523    0.9092 H   0  0  0  0  0  0  0  0  0  0  0  0
    2.2231   -4.6678   -0.3092 H   0  0  0  0  0  0  0  0  0  0  0  0
    3.1408   -5.1262    2.5800 H   0  0  0  0  0  0  0  0  0  0  0  0
    3.8735   -5.7987    1.1218 H   0  0  0  0  0  0  0  0  0  0  0  0
    3.9427   -4.0597    1.4247 H   0  0  0  0  0  0  0  0  0  0  0  0
   -1.8321   -0.8912    2.3823 H   0  0  0  0  0  0  0  0  0  0  0  0
   -2.2293   -2.5458    2.8544 H   0  0  0  0  0  0  0  0  0  0  0  0
   -2.5241   -0.7271    6.0192 H   0  0  0  0  0  0  0  0  0  0  0  0
   -3.1147   -0.2674    4.4188 H   0  0  0  0  0  0  0  0  0  0  0  0
   -3.2724   -1.9359    4.9719 H   0  0  0  0  0  0  0  0  0  0  0  0
   -0.6406   -2.3634    6.2263 H   0  0  0  0  0  0  0  0  0  0  0  0
   -1.2386   -3.4748    4.9917 H   0  0  0  0  0  0  0  0  0  0  0  0
    0.3643   -2.7517    4.8269 H   0  0  0  0  0  0  0  0  0  0  0  0
    0.0969   -0.2104    5.5777 H   0  0  0  0  0  0  0  0  0  0  0  0
    0.5201   -0.2867    3.8433 H   0  0  0  0  0  0  0  0  0  0  0  0
   -0.7169    3.7104    4.7700 H   0  0  0  0  0  0  0  0  0  0  0  0
   -2.5367    2.6367    3.2318 H   0  0  0  0  0  0  0  0  0  0  0  0
   -0.9917    3.3625    2.3572 H   0  0  0  0  0  0  0  0  0  0  0  0
   -1.3809    4.6306   -0.2186 H   0  0  0  0  0  0  0  0  0  0  0  0
   -2.3061    3.3566   -1.7553 H   0  0  0  0  0  0  0  0  0  0  0  0
   -5.1002    2.8129   -0.6447 H   0  0  0  0  0  0  0  0  0  0  0  0
   -5.8447    3.6241   -2.8588 H   0  0  0  0  0  0  0  0  0  0  0  0
   -4.1709    3.8811   -3.3548 H   0  0  0  0  0  0  0  0  0  0  0  0
   -4.7672    2.2466   -3.0846 H   0  0  0  0  0  0  0  0  0  0  0  0
   -4.2285    4.9468    0.2384 H   0  0  0  0  0  0  0  0  0  0  0  0
   -3.7432    5.4447   -1.3850 H   0  0  0  0  0  0  0  0  0  0  0  0
   -5.4492    5.2490   -0.9927 H   0  0  0  0  0  0  0  0  0  0  0  0
    0.0082   -0.6562   -1.3325 H   0  0  0  0  0  0  0  0  0  0  0  0
   -1.5141   -1.2213   -0.6431 H   0  0  0  0  0  0  0  0  0  0  0  0
   -0.0504   -3.1197   -1.2553 H   0  0  0  0  0  0  0  0  0  0  0  0
   -1.5597   -3.1328   -2.2066 H   0  0  0  0  0  0  0  0  0  0  0  0
    4.2508   -4.7222   -5.0235 H   0  0  0  0  0  0  0  0  0  0  0  0
    4.6594   -5.4131   -6.6141 H   0  0  0  0  0  0  0  0  0  0  0  0
    5.9425   -4.9493   -5.4814 H   0  0  0  0  0  0  0  0  0  0  0  0
    6.9429   -3.5460   -7.0728 H   0  0  0  0  0  0  0  0  0  0  0  0
    5.7147   -3.8867   -8.3025 H   0  0  0  0  0  0  0  0  0  0  0  0
    6.0550   -2.2114   -7.8014 H   0  0  0  0  0  0  0  0  0  0  0  0
    1.9774   -2.8035   -7.9011 H   0  0  0  0  0  0  0  0  0  0  0  0
    3.4957   -3.1813   -8.7204 H   0  0  0  0  0  0  0  0  0  0  0  0
    2.7523   -4.3656   -7.6317 H   0  0  0  0  0  0  0  0  0  0  0  0
    4.5947   -0.7943   -6.0939 H   0  0  0  0  0  0  0  0  0  0  0  0
    4.2681   -0.9744   -7.8273 H   0  0  0  0  0  0  0  0  0  0  0  0
    2.9405   -0.6821   -6.7073 H   0  0  0  0  0  0  0  0  0  0  0  0
    0.1884   -1.8976   -5.1961 H   0  0  0  0  0  0  0  0  0  0  0  0
   -1.4043   -2.4043   -4.5827 H   0  0  0  0  0  0  0  0  0  0  0  0
   -1.3549    0.0425   -4.7525 H   0  0  0  0  0  0  0  0  0  0  0  0
    0.1114    0.1296   -3.7682 H   0  0  0  0  0  0  0  0  0  0  0  0
   -4.0747    0.8350    0.1276 H   0  0  0  0  0  0  0  0  0  0  0  0
   -4.7719    0.4911   -1.4783 H   0  0  0  0  0  0  0  0  0  0  0  0
   -3.4649   -0.5055   -0.8364 H   0  0  0  0  0  0  0  0  0  0  0  0
    0.1575    5.9380    1.1989 H   0  0  0  0  0  0  0  0  0  0  0  0
    0.6892    5.1364    2.6800 H   0  0  0  0  0  0  0  0  0  0  0  0
    2.2873    4.3605    1.1746 H   0  0  0  0  0  0  0  0  0  0  0  0
    1.1777    2.3632    2.0976 H   0  0  0  0  0  0  0  0  0  0  0  0
   -0.0110    2.3972    0.7514 H   0  0  0  0  0  0  0  0  0  0  0  0
    2.6062    1.7184   -1.7352 H   0  0  0  0  0  0  0  0  0  0  0  0
    0.8532    2.0013   -1.5801 H   0  0  0  0  0  0  0  0  0  0  0  0
    3.0750    4.0025   -0.9463 H   0  0  0  0  0  0  0  0  0  0  0  0
    1.9112    4.0607   -2.3069 H   0  0  0  0  0  0  0  0  0  0  0  0
   -3.6099    6.3914    4.2511 H   0  0  0  0  0  0  0  0  0  0  0  0
   -4.4328    4.9066    4.8181 H   0  0  0  0  0  0  0  0  0  0  0  0
   -1.6848    5.9268    5.6926 H   0  0  0  0  0  0  0  0  0  0  0  0
   -3.1325    5.8584    6.7050 H   0  0  0  0  0  0  0  0  0  0  0  0
   -3.1536    3.3954    6.5826 H   0  0  0  0  0  0  0  0  0  0  0  0
   -1.5474    3.9102    7.1093 H   0  0  0  0  0  0  0  0  0  0  0  0
    3.3385   -2.4632   -0.4419 H   0  0  0  0  0  0  0  0  0  0  0  0
    3.4885   -0.0381   -0.7354 H   0  0  0  0  0  0  0  0  0  0  0  0
   -0.0168    0.5329    1.6803 H   0  0  0  0  0  0  0  0  0  0  0  0
  1  2  1  0  0  0  0
  2  3  1  0  0  0  0
  2  5  1  0  0  0  0
  3  4  1  0  0  0  0
  5  6  2  0  0  0  0
  5 10  1  0  0  0  0
  6  7  1  0  0  0  0
  7  8  2  0  0  0  0
  8  9  1  0  0  0  0
  9 10  2  0  0  0  0
 10 11  1  0  0  0  0
 11 12  1  0  0  0  0
 11 15  2  0  0  0  0
 12 13  1  0  0  0  0
 12 68  1  0  0  0  0
 13 14  1  0  0  0  0
 15 16  1  0  0  0  0
 15 67  1  0  0  0  0
 16 17  1  0  0  0  0
 17 18  1  0  0  0  0
 17 19  1  0  0  0  0
 17 20  1  0  0  0  0
 20 21  1  0  0  0  0
 21 22  1  0  0  0  0
 22 23  1  0  0  0  0
 22 66  2  0  0  0  0
 23 24  1  0  0  0  0
 23 65  1  0  0  0  0
 24 25  1  0  0  0  0
 25 26  1  0  0  0  0
 25 63  1  0  0  0  0
 26 27  1  0  0  0  0
 26 62  2  0  0  0  0
 27 28  1  0  0  0  0
 27 55  1  0  0  0  0
 28 29  1  0  0  0  0
 29 30  1  0  0  0  0
 29 54  2  0  0  0  0
 30 31  1  0  0  0  0
 30 34  1  0  0  0  0
 31 32  1  0  0  0  0
 31 33  1  0  0  0  0
 34 35  1  0  0  0  0
 34 53  1  0  0  0  0
 35 36  1  0  0  0  0
 35 52  2  0  0  0  0
 36 37  1  0  0  0  0
 36 51  1  0  0  0  0
 36 73  1  0  0  0  0
 37 38  1  0  0  0  0
 38 39  1  0  0  0  0
 39 40  1  0  0  0  0
 39 50  1  0  0  0  0
 40 41  1  0  0  0  0
 40 49  2  0  0  0  0
 42 43  1  0  0  0  0
 43 44  1  0  0  0  0
 43 47  1  0  0  0  0
 43 48  1  0  0  0  0
 44 45  1  0  0  0  0
 44 46  1  0  0  0  0
 50 51  1  0  0  0  0
 55 56  1  0  0  0  0
 56 57  1  0  0  0  0
 56 61  1  0  0  0  0
 57 58  1  0  0  0  0
 58 59  1  0  0  0  0
 58 71  1  0  0  0  0
 59 60  1  0  0  0  0
 60 61  1  0  0  0  0
 63 64  1  0  0  0  0
 64 65  1  0  0  0  0
 67 68  2  0  0  0  0
 67 72  1  0  0  0  0
 68 69  1  0  0  0  0
 69 70  2  0  0  0  0
 70 71  1  0  0  0  0
 71 72  2  0  0  0  0
 41 42  3  0  0  0  0
  1 74  1  0  0  0  0
  1 75  1  0  0  0  0
  1 76  1  0  0  0  0
  2 77  1  0  0  0  0
  4 78  1  0  0  0  0
  4 79  1  0  0  0  0
  4 80  1  0  0  0  0
  7 81  1  0  0  0  0
  8 82  1  0  0  0  0
  9 83  1  0  0  0  0
 13 84  1  0  0  0  0
 13 85  1  0  0  0  0
 14 86  1  0  0  0  0
 14 87  1  0  0  0  0
 14 88  1  0  0  0  0
 16 89  1  0  0  0  0
 16 90  1  0  0  0  0
 18 91  1  0  0  0  0
 18 92  1  0  0  0  0
 18 93  1  0  0  0  0
 19 94  1  0  0  0  0
 19 95  1  0  0  0  0
 19 96  1  0  0  0  0
 20 97  1  0  0  0  0
 20 98  1  0  0  0  0
 23 99  1  0  0  0  0
 24100  1  0  0  0  0
 27101  1  0  0  0  0
 28102  1  0  0  0  0
 30103  1  0  0  0  0
 31104  1  0  0  0  0
 32105  1  0  0  0  0
 32106  1  0  0  0  0
 32107  1  0  0  0  0
 33108  1  0  0  0  0
 33109  1  0  0  0  0
 33110  1  0  0  0  0
 37111  1  0  0  0  0
 37112  1  0  0  0  0
 38113  1  0  0  0  0
 38114  1  0  0  0  0
 45115  1  0  0  0  0
 45116  1  0  0  0  0
 45117  1  0  0  0  0
 46118  1  0  0  0  0
 46119  1  0  0  0  0
 46120  1  0  0  0  0
 47121  1  0  0  0  0
 47122  1  0  0  0  0
 47123  1  0  0  0  0
 48124  1  0  0  0  0
 48125  1  0  0  0  0
 48126  1  0  0  0  0
 50127  1  0  0  0  0
 50128  1  0  0  0  0
 51129  1  0  0  0  0
 51130  1  0  0  0  0
 53131  1  0  0  0  0
 53132  1  0  0  0  0
 53133  1  0  0  0  0
 55134  1  0  0  0  0
 55135  1  0  0  0  0
 56136  1  0  0  0  0
 57137  1  0  0  0  0
 57138  1  0  0  0  0
 59139  1  0  0  0  0
 59140  1  0  0  0  0
 60141  1  0  0  0  0
 60142  1  0  0  0  0
 63143  1  0  0  0  0
 63144  1  0  0  0  0
 64145  1  0  0  0  0
 64146  1  0  0  0  0
 65147  1  0  0  0  0
 65148  1  0  0  0  0
 69149  1  0  0  0  0
 70150  1  0  0  0  0
 72151  1  0  0  0  0
M  END
$$$$
