 xtb: 6.7.1 (edcfbbe)
          08172521083D

151157  0     0  0            999 V2000
    2.4759    7.5897   -7.8147 C   0  0  0  0  0  0  0  0  0  0  0  0
    2.5345    6.0761   -7.6067 C   0  0  0  0  0  0  0  0  0  0  0  0
    3.6673    5.4665   -8.2131 O   0  0  0  0  0  0  0  0  0  0  0  0
    3.8581    5.7163   -9.5881 C   0  0  0  0  0  0  0  0  0  0  0  0
    1.2513    5.4198   -8.0813 C   0  0  0  0  0  0  0  0  0  0  0  0
    0.8273    5.7793   -9.2855 N   0  0  0  0  0  0  0  0  0  0  0  0
   -0.2755    5.2473   -9.7787 C   0  0  0  0  0  0  0  0  0  0  0  0
   -1.0429    4.3263   -9.0847 C   0  0  0  0  0  0  0  0  0  0  0  0
   -0.6130    3.9453   -7.8266 C   0  0  0  0  0  0  0  0  0  0  0  0
    0.5636    4.4801   -7.3005 C   0  0  0  0  0  0  0  0  0  0  0  0
    1.0002    4.0689   -5.9624 C   0  0  0  0  0  0  0  0  0  0  0  0
    0.2235    4.3674   -4.8615 N   0  0  0  0  0  0  0  0  0  0  0  0
   -0.8821    5.2873   -4.8305 C   0  0  0  0  0  0  0  0  0  0  0  0
   -0.4107    6.7200   -4.5823 C   0  0  0  0  0  0  0  0  0  0  0  0
    2.0916    3.3196   -5.5860 C   0  0  0  0  0  0  0  0  0  0  0  0
    3.1424    2.7647   -6.4918 C   0  0  0  0  0  0  0  0  0  0  0  0
    2.8786    1.3347   -7.0205 C   0  0  0  0  0  0  0  0  0  0  0  0
    3.8230    1.0680   -8.1951 C   0  0  0  0  0  0  0  0  0  0  0  0
    1.4325    1.1699   -7.4858 C   0  0  0  0  0  0  0  0  0  0  0  0
    3.1438    0.3025   -5.9190 C   0  0  0  0  0  0  0  0  0  0  0  0
    4.5297    0.3320   -5.5645 O   0  0  0  0  0  0  0  0  0  0  0  0
    4.8837   -0.3032   -4.4594 C   0  0  0  0  0  0  0  0  0  0  0  0
    6.3614   -0.1209   -4.1440 C   0  0  0  0  0  0  0  0  0  0  0  0
    6.8937   -1.2922   -3.4671 N   0  0  0  0  0  0  0  0  0  0  0  0
    8.1093   -0.9606   -2.8632 N   0  0  0  0  0  0  0  0  0  0  0  0
    8.2516   -0.3812   -1.6481 C   0  0  0  0  0  0  0  0  0  0  0  0
    6.9866   -0.3279   -0.7679 C   0  0  0  0  0  0  0  0  0  0  0  0
    7.0552   -1.3718    0.2291 N   0  0  0  0  0  0  0  0  0  0  0  0
    6.5493   -2.5903   -0.0083 C   0  0  0  0  0  0  0  0  0  0  0  0
    6.5578   -3.4801    1.2383 C   0  0  0  0  0  0  0  0  0  0  0  0
    6.5307   -4.9761    0.9061 C   0  0  0  0  0  0  0  0  0  0  0  0
    6.3114   -5.8057    2.1678 C   0  0  0  0  0  0  0  0  0  0  0  0
    7.8562   -5.3464    0.2426 C   0  0  0  0  0  0  0  0  0  0  0  0
    5.4362   -3.0274    2.0648 N   0  0  0  0  0  0  0  0  0  0  0  0
    5.7355   -2.1710    3.0570 C   0  0  0  0  0  0  0  0  0  0  0  0
    4.6570   -1.7068    4.0470 C   0  0  0  0  0  0  0  0  0  0  0  0
    4.6473   -2.6804    5.2325 C   0  0  0  0  0  0  0  0  0  0  0  0
    3.6912   -2.1788    6.3161 C   0  0  0  0  0  0  0  0  0  0  0  0
    4.0260   -0.8302    6.7043 N   0  0  0  0  0  0  0  0  0  0  0  0
    4.4113   -0.5641    7.9777 C   0  0  0  0  0  0  0  0  0  0  0  0
    4.7224    0.8201    8.2424 C   0  0  0  0  0  0  0  0  0  0  0  0
    4.9560    1.9306    8.6465 C   0  0  0  0  0  0  0  0  0  0  0  0
    5.3551    3.2946    8.9913 C   0  0  0  0  0  0  0  0  0  0  0  0
    6.6923    3.6021    8.4551 N   0  0  0  0  0  0  0  0  0  0  0  0
    6.7742    3.5334    7.0085 C   0  0  0  0  0  0  0  0  0  0  0  0
    7.7549    2.8124    9.0521 C   0  0  0  0  0  0  0  0  0  0  0  0
    4.3236    4.2794    8.4153 C   0  0  0  0  0  0  0  0  0  0  0  0
    5.3526    3.4365   10.5211 C   0  0  0  0  0  0  0  0  0  0  0  0
    4.4741   -1.4148    8.8468 O   0  0  0  0  0  0  0  0  0  0  0  0
    3.9992    0.1266    5.6277 C   0  0  0  0  0  0  0  0  0  0  0  0
    4.9757   -0.2881    4.5257 C   0  0  0  0  0  0  0  0  0  0  0  0
    6.8866   -1.8184    3.2848 O   0  0  0  0  0  0  0  0  0  0  0  0
    4.1056   -3.2627    1.5431 C   0  0  0  0  0  0  0  0  0  0  0  0
    6.0710   -2.9248   -1.0774 O   0  0  0  0  0  0  0  0  0  0  0  0
    6.8504    1.0543   -0.1260 C   0  0  0  0  0  0  0  0  0  0  0  0
    5.3953    1.4577    0.1278 C   0  0  0  0  0  0  0  0  0  0  0  0
    4.6085    1.6663   -1.1769 C   0  0  0  0  0  0  0  0  0  0  0  0
    3.2544    2.0603   -0.8501 N   0  0  0  0  0  0  0  0  0  0  0  0
    2.6300    1.0202   -0.0499 C   0  0  0  0  0  0  0  0  0  0  0  0
    3.4455    0.8367    1.2273 C   0  0  0  0  0  0  0  0  0  0  0  0
    4.7785    0.4770    0.9406 O   0  0  0  0  0  0  0  0  0  0  0  0
    9.3262    0.0209   -1.2424 O   0  0  0  0  0  0  0  0  0  0  0  0
    9.1255   -0.7949   -3.8866 C   0  0  0  0  0  0  0  0  0  0  0  0
    8.7073    0.3424   -4.8275 C   0  0  0  0  0  0  0  0  0  0  0  0
    7.2802    0.1280   -5.3435 C   0  0  0  0  0  0  0  0  0  0  0  0
    4.1269   -0.8944   -3.7320 O   0  0  0  0  0  0  0  0  0  0  0  0
    2.0116    3.1797   -4.1669 C   0  0  0  0  0  0  0  0  0  0  0  0
    0.8408    3.8548   -3.7527 C   0  0  0  0  0  0  0  0  0  0  0  0
    0.4816    3.9123   -2.4109 C   0  0  0  0  0  0  0  0  0  0  0  0
    1.2960    3.2891   -1.4971 C   0  0  0  0  0  0  0  0  0  0  0  0
    2.4685    2.6096   -1.8813 C   0  0  0  0  0  0  0  0  0  0  0  0
    2.8281    2.5623   -3.2167 C   0  0  0  0  0  0  0  0  0  0  0  0
    3.3773   -1.6812    3.5011 F   0  0  0  0  0  0  0  0  0  0  0  0
    1.7182    8.0181   -7.1634 H   0  0  0  0  0  0  0  0  0  0  0  0
    3.4390    8.0318   -7.5720 H   0  0  0  0  0  0  0  0  0  0  0  0
    2.2155    7.8171   -8.8444 H   0  0  0  0  0  0  0  0  0  0  0  0
    2.6741    5.8521   -6.5424 H   0  0  0  0  0  0  0  0  0  0  0  0
    4.2355    6.7286   -9.7632 H   0  0  0  0  0  0  0  0  0  0  0  0
    4.6059    4.9957   -9.9172 H   0  0  0  0  0  0  0  0  0  0  0  0
    2.9342    5.5737  -10.1553 H   0  0  0  0  0  0  0  0  0  0  0  0
   -0.5527    5.5844  -10.7689 H   0  0  0  0  0  0  0  0  0  0  0  0
   -1.9452    3.9194   -9.5137 H   0  0  0  0  0  0  0  0  0  0  0  0
   -1.1727    3.2205   -7.2513 H   0  0  0  0  0  0  0  0  0  0  0  0
   -1.4161    5.2369   -5.7828 H   0  0  0  0  0  0  0  0  0  0  0  0
   -1.5654    4.9749   -4.0361 H   0  0  0  0  0  0  0  0  0  0  0  0
    0.1403    6.7779   -3.6466 H   0  0  0  0  0  0  0  0  0  0  0  0
    0.2436    7.0416   -5.3896 H   0  0  0  0  0  0  0  0  0  0  0  0
   -1.2625    7.3928   -4.5326 H   0  0  0  0  0  0  0  0  0  0  0  0
    3.2490    3.4291   -7.3495 H   0  0  0  0  0  0  0  0  0  0  0  0
    4.0975    2.7549   -5.9631 H   0  0  0  0  0  0  0  0  0  0  0  0
    4.8564    1.1991   -7.8873 H   0  0  0  0  0  0  0  0  0  0  0  0
    3.6986    0.0513   -8.5619 H   0  0  0  0  0  0  0  0  0  0  0  0
    3.6121    1.7577   -9.0086 H   0  0  0  0  0  0  0  0  0  0  0  0
    0.7436    1.3002   -6.6549 H   0  0  0  0  0  0  0  0  0  0  0  0
    1.2018    1.9075   -8.2497 H   0  0  0  0  0  0  0  0  0  0  0  0
    1.2801    0.1785   -7.9069 H   0  0  0  0  0  0  0  0  0  0  0  0
    2.5411    0.5119   -5.0293 H   0  0  0  0  0  0  0  0  0  0  0  0
    2.8999   -0.7072   -6.2673 H   0  0  0  0  0  0  0  0  0  0  0  0
    6.4005    0.7756   -3.4882 H   0  0  0  0  0  0  0  0  0  0  0  0
    6.2560   -1.7789   -2.8387 H   0  0  0  0  0  0  0  0  0  0  0  0
    6.0993   -0.5479   -1.3655 H   0  0  0  0  0  0  0  0  0  0  0  0
    7.4268   -1.1466    1.1410 H   0  0  0  0  0  0  0  0  0  0  0  0
    7.4612   -3.2713    1.8206 H   0  0  0  0  0  0  0  0  0  0  0  0
    5.7323   -5.1785    0.1864 H   0  0  0  0  0  0  0  0  0  0  0  0
    5.3416   -5.5991    2.6127 H   0  0  0  0  0  0  0  0  0  0  0  0
    6.3594   -6.8657    1.9307 H   0  0  0  0  0  0  0  0  0  0  0  0
    7.0816   -5.5823    2.9031 H   0  0  0  0  0  0  0  0  0  0  0  0
    7.8598   -6.4007   -0.0224 H   0  0  0  0  0  0  0  0  0  0  0  0
    8.0010   -4.7645   -0.6638 H   0  0  0  0  0  0  0  0  0  0  0  0
    8.6894   -5.1570    0.9163 H   0  0  0  0  0  0  0  0  0  0  0  0
    4.3352   -3.6701    4.8951 H   0  0  0  0  0  0  0  0  0  0  0  0
    5.6625   -2.7473    5.6247 H   0  0  0  0  0  0  0  0  0  0  0  0
    2.6636   -2.1965    5.9332 H   0  0  0  0  0  0  0  0  0  0  0  0
    3.7564   -2.8076    7.2063 H   0  0  0  0  0  0  0  0  0  0  0  0
    7.7804    3.8256    6.7108 H   0  0  0  0  0  0  0  0  0  0  0  0
    6.5757    2.5262    6.6116 H   0  0  0  0  0  0  0  0  0  0  0  0
    6.0784    4.2356    6.5568 H   0  0  0  0  0  0  0  0  0  0  0  0
    7.8380    3.0362   10.1123 H   0  0  0  0  0  0  0  0  0  0  0  0
    7.6101    1.7302    8.9233 H   0  0  0  0  0  0  0  0  0  0  0  0
    8.6949    3.0924    8.5788 H   0  0  0  0  0  0  0  0  0  0  0  0
    3.3906    4.1966    8.9671 H   0  0  0  0  0  0  0  0  0  0  0  0
    4.7044    5.2927    8.5121 H   0  0  0  0  0  0  0  0  0  0  0  0
    4.1091    4.0746    7.3698 H   0  0  0  0  0  0  0  0  0  0  0  0
    5.8881    2.6201   10.9970 H   0  0  0  0  0  0  0  0  0  0  0  0
    5.8112    4.3824   10.7976 H   0  0  0  0  0  0  0  0  0  0  0  0
    4.3290    3.4185   10.8871 H   0  0  0  0  0  0  0  0  0  0  0  0
    2.9834    0.1676    5.2136 H   0  0  0  0  0  0  0  0  0  0  0  0
    4.2604    1.1130    6.0150 H   0  0  0  0  0  0  0  0  0  0  0  0
    6.0012   -0.2791    4.8941 H   0  0  0  0  0  0  0  0  0  0  0  0
    4.9048    0.3946    3.6783 H   0  0  0  0  0  0  0  0  0  0  0  0
    3.4684   -3.7456    2.2841 H   0  0  0  0  0  0  0  0  0  0  0  0
    3.6410   -2.3279    1.2280 H   0  0  0  0  0  0  0  0  0  0  0  0
    4.1832   -3.9056    0.6720 H   0  0  0  0  0  0  0  0  0  0  0  0
    7.3952    1.0574    0.8191 H   0  0  0  0  0  0  0  0  0  0  0  0
    7.3096    1.8045   -0.7720 H   0  0  0  0  0  0  0  0  0  0  0  0
    5.3860    2.4198    0.6715 H   0  0  0  0  0  0  0  0  0  0  0  0
    5.0831    2.4671   -1.7481 H   0  0  0  0  0  0  0  0  0  0  0  0
    4.6113    0.7362   -1.7664 H   0  0  0  0  0  0  0  0  0  0  0  0
    1.6085    1.3026    0.2009 H   0  0  0  0  0  0  0  0  0  0  0  0
    2.6085    0.0658   -0.6033 H   0  0  0  0  0  0  0  0  0  0  0  0
    3.4322    1.7780    1.7999 H   0  0  0  0  0  0  0  0  0  0  0  0
    3.0305    0.0336    1.8368 H   0  0  0  0  0  0  0  0  0  0  0  0
   10.0717   -0.5706   -3.3947 H   0  0  0  0  0  0  0  0  0  0  0  0
    9.1993   -1.7363   -4.4345 H   0  0  0  0  0  0  0  0  0  0  0  0
    8.7559    1.2858   -4.2780 H   0  0  0  0  0  0  0  0  0  0  0  0
    9.4043    0.4003   -5.6634 H   0  0  0  0  0  0  0  0  0  0  0  0
    7.2467   -0.7486   -5.9909 H   0  0  0  0  0  0  0  0  0  0  0  0
    6.9458    0.9970   -5.9097 H   0  0  0  0  0  0  0  0  0  0  0  0
   -0.4034    4.4375   -2.0841 H   0  0  0  0  0  0  0  0  0  0  0  0
    1.0496    3.3393   -0.4475 H   0  0  0  0  0  0  0  0  0  0  0  0
    3.7269    2.0603   -3.5359 H   0  0  0  0  0  0  0  0  0  0  0  0
  1  2  1  0  0  0  0
  2  3  1  0  0  0  0
  3  4  1  0  0  0  0
  2  5  1  0  0  0  0
  5  6  4  0  0  0  0
  6  7  4  0  0  0  0
  7  8  4  0  0  0  0
  8  9  4  0  0  0  0
  5 10  4  0  0  0  0
  9 10  4  0  0  0  0
 10 11  1  0  0  0  0
 11 12  1  0  0  0  0
 12 13  1  0  0  0  0
 13 14  1  0  0  0  0
 11 15  2  0  0  0  0
 15 16  1  0  0  0  0
 16 17  1  0  0  0  0
 17 18  1  0  0  0  0
 17 19  1  0  0  0  0
 17 20  1  0  0  0  0
 20 21  1  0  0  0  0
 21 22  1  0  0  0  0
 22 23  1  0  0  0  0
 23 24  1  0  0  0  0
 24 25  1  0  0  0  0
 25 26  4  0  0  0  0
 26 27  1  0  0  0  0
 27 28  1  0  0  0  0
 28 29  4  0  0  0  0
 29 30  1  0  0  0  0
 30 31  1  0  0  0  0
 31 32  1  0  0  0  0
 31 33  1  0  0  0  0
 30 34  1  0  0  0  0
 34 35  4  0  0  0  0
 35 36  1  0  0  0  0
 36 37  1  0  0  0  0
 37 38  1  0  0  0  0
 38 39  1  0  0  0  0
 39 40  4  0  0  0  0
 40 41  1  0  0  0  0
 41 42  3  0  0  0  0
 42 43  1  0  0  0  0
 43 44  1  0  0  0  0
 44 45  1  0  0  0  0
 44 46  1  0  0  0  0
 43 47  1  0  0  0  0
 43 48  1  0  0  0  0
 40 49  2  0  0  0  0
 39 50  1  0  0  0  0
 36 51  1  0  0  0  0
 50 51  1  0  0  0  0
 35 52  2  0  0  0  0
 34 53  1  0  0  0  0
 29 54  2  0  0  0  0
 27 55  1  0  0  0  0
 55 56  1  0  0  0  0
 56 57  1  0  0  0  0
 57 58  1  0  0  0  0
 58 59  1  0  0  0  0
 59 60  1  0  0  0  0
 56 61  1  0  0  0  0
 60 61  1  0  0  0  0
 26 62  2  0  0  0  0
 25 63  1  0  0  0  0
 63 64  1  0  0  0  0
 23 65  1  0  0  0  0
 64 65  1  0  0  0  0
 22 66  2  0  0  0  0
 15 67  4  0  0  0  0
 12 68  1  0  0  0  0
 67 68  4  0  0  0  0
 68 69  4  0  0  0  0
 69 70  2  0  0  0  0
 58 71  1  0  0  0  0
 70 71  4  0  0  0  0
 67 72  4  0  0  0  0
 71 72  4  0  0  0  0
 36 73  1  0  0  0  0
  1 74  1  0  0  0  0
  1 75  1  0  0  0  0
  1 76  1  0  0  0  0
  2 77  1  0  0  0  0
  4 78  1  0  0  0  0
  4 79  1  0  0  0  0
  4 80  1  0  0  0  0
  7 81  1  0  0  0  0
  8 82  1  0  0  0  0
  9 83  1  0  0  0  0
 13 84  1  0  0  0  0
 13 85  1  0  0  0  0
 14 86  1  0  0  0  0
 14 87  1  0  0  0  0
 14 88  1  0  0  0  0
 16 89  1  0  0  0  0
 16 90  1  0  0  0  0
 18 91  1  0  0  0  0
 18 92  1  0  0  0  0
 18 93  1  0  0  0  0
 19 94  1  0  0  0  0
 19 95  1  0  0  0  0
 19 96  1  0  0  0  0
 20 97  1  0  0  0  0
 20 98  1  0  0  0  0
 23 99  1  0  0  0  0
 24100  1  0  0  0  0
 27101  1  0  0  0  0
 28102  1  0  0  0  0
 30103  1  0  0  0  0
 31104  1  0  0  0  0
 32105  1  0  0  0  0
 32106  1  0  0  0  0
 32107  1  0  0  0  0
 33108  1  0  0  0  0
 33109  1  0  0  0  0
 33110  1  0  0  0  0
 37111  1  0  0  0  0
 37112  1  0  0  0  0
 38113  1  0  0  0  0
 38114  1  0  0  0  0
 45115  1  0  0  0  0
 45116  1  0  0  0  0
 45117  1  0  0  0  0
 46118  1  0  0  0  0
 46119  1  0  0  0  0
 46120  1  0  0  0  0
 47121  1  0  0  0  0
 47122  1  0  0  0  0
 47123  1  0  0  0  0
 48124  1  0  0  0  0
 48125  1  0  0  0  0
 48126  1  0  0  0  0
 50127  1  0  0  0  0
 50128  1  0  0  0  0
 51129  1  0  0  0  0
 51130  1  0  0  0  0
 53131  1  0  0  0  0
 53132  1  0  0  0  0
 53133  1  0  0  0  0
 55134  1  0  0  0  0
 55135  1  0  0  0  0
 56136  1  0  0  0  0
 57137  1  0  0  0  0
 57138  1  0  0  0  0
 59139  1  0  0  0  0
 59140  1  0  0  0  0
 60141  1  0  0  0  0
 60142  1  0  0  0  0
 63143  1  0  0  0  0
 63144  1  0  0  0  0
 64145  1  0  0  0  0
 64146  1  0  0  0  0
 65147  1  0  0  0  0
 65148  1  0  0  0  0
 69149  1  0  0  0  0
 70150  1  0  0  0  0
 72151  1  0  0  0  0
M  END
$$$$
