mol_bioactive_19
     RDKit          3D

151157  0  0  0  0  0  0  0  0999 V2000
    0.1124   15.7781  -12.4245 C   0  0  0  0  0  0  0  0  0  0  0  0
   -0.0074   15.0892  -11.0609 C   0  0  2  0  0  0  0  0  0  0  0  0
   -0.2287   16.0749  -10.0399 O   0  0  0  0  0  0  0  0  0  0  0  0
   -1.5938   16.4524   -9.9175 C   0  0  0  0  0  0  0  0  0  0  0  0
    1.2520   14.2935  -10.7247 C   0  0  0  0  0  0  0  0  0  0  0  0
    2.4405   14.8251  -11.1449 N   0  0  0  0  0  0  0  0  0  0  0  0
    3.5716   14.1287  -10.9110 C   0  0  0  0  0  0  0  0  0  0  0  0
    3.5981   12.8995  -10.2830 C   0  0  0  0  0  0  0  0  0  0  0  0
    2.3907   12.3616   -9.8527 C   0  0  0  0  0  0  0  0  0  0  0  0
    1.1919   13.0614  -10.0468 C   0  0  0  0  0  0  0  0  0  0  0  0
   -0.0661   12.4411   -9.6163 C   0  0  0  0  0  0  0  0  0  0  0  0
   -0.6910   11.4543  -10.3636 N   0  0  0  0  0  0  0  0  0  0  0  0
   -0.1722   10.8375  -11.5809 C   0  0  0  0  0  0  0  0  0  0  0  0
    0.3731    9.4411  -11.3358 C   0  0  0  0  0  0  0  0  0  0  0  0
   -0.8847   12.7196   -8.5201 C   0  0  0  0  0  0  0  0  0  0  0  0
   -0.6717   13.7166   -7.4010 C   0  0  0  0  0  0  0  0  0  0  0  0
    0.3487   13.3879   -6.2718 C   0  0  0  0  0  0  0  0  0  0  0  0
   -0.0008   14.2837   -5.0579 C   0  0  0  0  0  0  0  0  0  0  0  0
    1.7803   13.7607   -6.6996 C   0  0  0  0  0  0  0  0  0  0  0  0
    0.3513   11.9047   -5.8374 C   0  0  0  0  0  0  0  0  0  0  0  0
   -0.8084   11.5679   -5.0630 O   0  0  0  0  0  0  0  0  0  0  0  0
   -0.7784   10.2856   -4.5858 C   0  0  0  0  0  0  0  0  0  0  0  0
   -1.9045   10.0651   -3.5705 C   0  0  1  0  0  0  0  0  0  0  0  0
   -2.3719    8.6728   -3.6556 N   0  0  0  0  0  0  0  0  0  0  0  0
   -3.3688    8.3908   -2.7012 N   0  0  0  0  0  0  0  0  0  0  0  0
   -4.6960    8.0678   -2.9990 C   0  0  0  0  0  0  0  0  0  0  0  0
   -5.2125    8.4393   -4.4053 C   0  0  1  0  0  0  0  0  0  0  0  0
   -6.2643    7.5118   -4.8143 N   0  0  0  0  0  0  0  0  0  0  0  0
   -5.9099    6.3075   -5.3992 C   0  0  0  0  0  0  0  0  0  0  0  0
   -7.0989    5.3594   -5.6698 C   0  0  2  0  0  0  0  0  0  0  0  0
   -6.6852    3.8639   -5.6419 C   0  0  0  0  0  0  0  0  0  0  0  0
   -7.8841    2.9538   -5.9405 C   0  0  0  0  0  0  0  0  0  0  0  0
   -6.1015    3.4757   -4.2757 C   0  0  0  0  0  0  0  0  0  0  0  0
   -7.7321    5.7598   -6.9581 N   0  0  0  0  0  0  0  0  0  0  0  0
   -9.0246    6.2811   -6.9169 C   0  0  0  0  0  0  0  0  0  0  0  0
   -9.7963    6.5312   -8.2384 C   0  0  0  0  0  0  0  0  0  0  0  0
  -11.1044    7.2934   -7.9476 C   0  0  0  0  0  0  0  0  0  0  0  0
  -11.9556    7.4120   -9.2071 C   0  0  0  0  0  0  0  0  0  0  0  0
  -12.1903    6.0846   -9.7591 N   0  0  0  0  0  0  0  0  0  0  0  0
  -13.3521    5.3477   -9.5482 C   0  0  0  0  0  0  0  0  0  0  0  0
  -14.4898    6.0032   -8.9400 C   0  0  0  0  0  0  0  0  0  0  0  0
  -15.4375    6.5275   -8.4158 C   0  0  0  0  0  0  0  0  0  0  0  0
  -16.6039    7.1664   -7.7601 C   0  0  0  0  0  0  0  0  0  0  0  0
  -16.2117    7.9657   -6.5655 N   0  0  0  0  0  0  0  0  0  0  0  0
  -15.5693    7.1872   -5.5016 C   0  0  0  0  0  0  0  0  0  0  0  0
  -15.3956    9.1439   -6.8671 C   0  0  0  0  0  0  0  0  0  0  0  0
  -17.6078    6.0614   -7.3556 C   0  0  0  0  0  0  0  0  0  0  0  0
  -17.3216    8.0494   -8.8060 C   0  0  0  0  0  0  0  0  0  0  0  0
  -13.4627    4.1603   -9.8333 O   0  0  0  0  0  0  0  0  0  0  0  0
  -10.9826    5.3826  -10.1558 C   0  0  0  0  0  0  0  0  0  0  0  0
  -10.0864    5.1868   -8.9365 C   0  0  0  0  0  0  0  0  0  0  0  0
   -9.5835    6.4650   -5.8310 O   0  0  0  0  0  0  0  0  0  0  0  0
   -6.8994    5.6723   -8.1603 C   0  0  0  0  0  0  0  0  0  0  0  0
   -4.7627    6.0747   -5.7784 O   0  0  0  0  0  0  0  0  0  0  0  0
   -5.7500    9.8757   -4.3462 C   0  0  0  0  0  0  0  0  0  0  0  0
   -5.3310   10.7223   -5.5499 C   0  0  1  0  0  0  0  0  0  0  0  0
   -5.8479   10.1626   -6.9015 C   0  0  0  0  0  0  0  0  0  0  0  0
   -5.7071   11.1659   -7.9744 N   0  0  0  0  0  0  0  0  0  0  0  0
   -6.2590   12.4977   -7.6323 C   0  0  0  0  0  0  0  0  0  0  0  0
   -6.7340   12.5666   -6.1746 C   0  0  0  0  0  0  0  0  0  0  0  0
   -5.7397   12.0801   -5.2660 O   0  0  0  0  0  0  0  0  0  0  0  0
   -5.4810    7.6266   -2.1507 O   0  0  0  0  0  0  0  0  0  0  0  0
   -2.8967    8.4737   -1.3188 C   0  0  0  0  0  0  0  0  0  0  0  0
   -2.3706    9.8916   -1.0688 C   0  0  0  0  0  0  0  0  0  0  0  0
   -1.3663   10.3189   -2.1511 C   0  0  0  0  0  0  0  0  0  0  0  0
    0.0587    9.4477   -4.8985 O   0  0  0  0  0  0  0  0  0  0  0  0
   -2.1051   11.9781   -8.7217 C   0  0  0  0  0  0  0  0  0  0  0  0
   -1.9503   11.1945   -9.8611 C   0  0  0  0  0  0  0  0  0  0  0  0
   -2.9706   10.3495  -10.3280 C   0  0  0  0  0  0  0  0  0  0  0  0
   -4.1962   10.3545   -9.6548 C   0  0  0  0  0  0  0  0  0  0  0  0
   -4.4205   11.1681   -8.5453 C   0  0  0  0  0  0  0  0  0  0  0  0
   -3.3540   11.9446   -8.0546 C   0  0  0  0  0  0  0  0  0  0  0  0
   -9.0767    7.3197   -9.0985 F   0  0  0  0  0  0  0  0  0  0  0  0
    0.8525   16.5865  -12.4008 H   0  0  0  0  0  0  0  0  0  0  0  0
    0.3950   15.0674  -13.2085 H   0  0  0  0  0  0  0  0  0  0  0  0
   -0.8380   16.2377  -12.7145 H   0  0  0  0  0  0  0  0  0  0  0  0
   -0.8641   14.4078  -11.1157 H   0  0  0  0  0  0  0  0  0  0  0  0
   -1.6693   17.1991   -9.1236 H   0  0  0  0  0  0  0  0  0  0  0  0
   -1.9654   16.8981  -10.8439 H   0  0  0  0  0  0  0  0  0  0  0  0
   -2.2076   15.5892   -9.6417 H   0  0  0  0  0  0  0  0  0  0  0  0
    4.4849   14.5999  -11.2622 H   0  0  0  0  0  0  0  0  0  0  0  0
    4.5337   12.3768  -10.1250 H   0  0  0  0  0  0  0  0  0  0  0  0
    2.3860   11.3970   -9.3498 H   0  0  0  0  0  0  0  0  0  0  0  0
   -0.9863   10.8146  -12.3136 H   0  0  0  0  0  0  0  0  0  0  0  0
    0.6033   11.4786  -12.0058 H   0  0  0  0  0  0  0  0  0  0  0  0
    1.1568    9.4470  -10.5726 H   0  0  0  0  0  0  0  0  0  0  0  0
   -0.4148    8.7618  -10.9958 H   0  0  0  0  0  0  0  0  0  0  0  0
    0.7925    9.0313  -12.2592 H   0  0  0  0  0  0  0  0  0  0  0  0
   -0.4106   14.6827   -7.8464 H   0  0  0  0  0  0  0  0  0  0  0  0
   -1.6491   13.8884   -6.9324 H   0  0  0  0  0  0  0  0  0  0  0  0
    0.6761   14.0959   -4.2174 H   0  0  0  0  0  0  0  0  0  0  0  0
    0.0776   15.3456   -5.3195 H   0  0  0  0  0  0  0  0  0  0  0  0
   -1.0246   14.1069   -4.7045 H   0  0  0  0  0  0  0  0  0  0  0  0
    2.4518   13.8045   -5.8328 H   0  0  0  0  0  0  0  0  0  0  0  0
    2.2020   13.0124   -7.3703 H   0  0  0  0  0  0  0  0  0  0  0  0
    1.8186   14.7398   -7.1897 H   0  0  0  0  0  0  0  0  0  0  0  0
    0.4250   11.2407   -6.7077 H   0  0  0  0  0  0  0  0  0  0  0  0
    1.2341   11.7249   -5.2091 H   0  0  0  0  0  0  0  0  0  0  0  0
   -2.7314   10.7449   -3.8013 H   0  0  0  0  0  0  0  0  0  0  0  0
   -2.5586    8.3465   -4.6036 H   0  0  0  0  0  0  0  0  0  0  0  0
   -4.4082    8.3595   -5.1381 H   0  0  0  0  0  0  0  0  0  0  0  0
   -7.1059    7.4967   -4.2428 H   0  0  0  0  0  0  0  0  0  0  0  0
   -7.8115    5.5041   -4.8476 H   0  0  0  0  0  0  0  0  0  0  0  0
   -5.9115    3.6704   -6.3956 H   0  0  0  0  0  0  0  0  0  0  0  0
   -8.7133    3.1517   -5.2497 H   0  0  0  0  0  0  0  0  0  0  0  0
   -8.2524    3.1017   -6.9606 H   0  0  0  0  0  0  0  0  0  0  0  0
   -7.6099    1.8980   -5.8412 H   0  0  0  0  0  0  0  0  0  0  0  0
   -6.8191    3.6652   -3.4682 H   0  0  0  0  0  0  0  0  0  0  0  0
   -5.8428    2.4113   -4.2529 H   0  0  0  0  0  0  0  0  0  0  0  0
   -5.1880    4.0370   -4.0546 H   0  0  0  0  0  0  0  0  0  0  0  0
  -11.6839    6.7786   -7.1699 H   0  0  0  0  0  0  0  0  0  0  0  0
  -10.8739    8.2975   -7.5764 H   0  0  0  0  0  0  0  0  0  0  0  0
  -12.8919    7.9286   -8.9868 H   0  0  0  0  0  0  0  0  0  0  0  0
  -11.4371    8.0057   -9.9694 H   0  0  0  0  0  0  0  0  0  0  0  0
  -15.3839    7.8236   -4.6275 H   0  0  0  0  0  0  0  0  0  0  0  0
  -16.2116    6.3795   -5.1383 H   0  0  0  0  0  0  0  0  0  0  0  0
  -14.6085    6.7624   -5.8116 H   0  0  0  0  0  0  0  0  0  0  0  0
  -15.1714    9.6998   -5.9484 H   0  0  0  0  0  0  0  0  0  0  0  0
  -14.4424    8.8873   -7.3418 H   0  0  0  0  0  0  0  0  0  0  0  0
  -15.9293    9.8531   -7.5076 H   0  0  0  0  0  0  0  0  0  0  0  0
  -18.4389    6.4760   -6.7717 H   0  0  0  0  0  0  0  0  0  0  0  0
  -18.0385    5.5733   -8.2399 H   0  0  0  0  0  0  0  0  0  0  0  0
  -17.1396    5.2643   -6.7653 H   0  0  0  0  0  0  0  0  0  0  0  0
  -18.1501    8.6049   -8.3560 H   0  0  0  0  0  0  0  0  0  0  0  0
  -16.6432    8.7654   -9.2833 H   0  0  0  0  0  0  0  0  0  0  0  0
  -17.7375    7.4413   -9.6189 H   0  0  0  0  0  0  0  0  0  0  0  0
  -11.2199    4.4133  -10.6074 H   0  0  0  0  0  0  0  0  0  0  0  0
  -10.4744    5.9845  -10.9178 H   0  0  0  0  0  0  0  0  0  0  0  0
   -9.1648    4.7011   -9.2670 H   0  0  0  0  0  0  0  0  0  0  0  0
  -10.5736    4.5037   -8.2271 H   0  0  0  0  0  0  0  0  0  0  0  0
   -5.9774    6.2392   -8.0100 H   0  0  0  0  0  0  0  0  0  0  0  0
   -6.6494    4.6247   -8.3483 H   0  0  0  0  0  0  0  0  0  0  0  0
   -7.3702    6.0808   -9.0546 H   0  0  0  0  0  0  0  0  0  0  0  0
   -6.8451    9.8859   -4.2568 H   0  0  0  0  0  0  0  0  0  0  0  0
   -5.3911   10.3868   -3.4424 H   0  0  0  0  0  0  0  0  0  0  0  0
   -4.2366   10.7508   -5.5806 H   0  0  0  0  0  0  0  0  0  0  0  0
   -5.3452    9.2226   -7.1601 H   0  0  0  0  0  0  0  0  0  0  0  0
   -6.9141    9.9204   -6.8137 H   0  0  0  0  0  0  0  0  0  0  0  0
   -5.5418   13.3060   -7.8115 H   0  0  0  0  0  0  0  0  0  0  0  0
   -7.1110   12.6983   -8.2928 H   0  0  0  0  0  0  0  0  0  0  0  0
   -6.9559   13.6044   -5.9069 H   0  0  0  0  0  0  0  0  0  0  0  0
   -7.6582   11.9950   -6.0272 H   0  0  0  0  0  0  0  0  0  0  0  0
   -3.7018    8.2407   -0.6127 H   0  0  0  0  0  0  0  0  0  0  0  0
   -2.1001    7.7321   -1.1833 H   0  0  0  0  0  0  0  0  0  0  0  0
   -3.2147   10.5933   -1.0764 H   0  0  0  0  0  0  0  0  0  0  0  0
   -1.9086    9.9523   -0.0791 H   0  0  0  0  0  0  0  0  0  0  0  0
   -0.4283    9.7672   -1.9988 H   0  0  0  0  0  0  0  0  0  0  0  0
   -1.1242   11.3805   -2.0267 H   0  0  0  0  0  0  0  0  0  0  0  0
   -2.8409    9.7303  -11.2097 H   0  0  0  0  0  0  0  0  0  0  0  0
   -5.0066    9.7342  -10.0321 H   0  0  0  0  0  0  0  0  0  0  0  0
   -3.4911   12.5592   -7.1717 H   0  0  0  0  0  0  0  0  0  0  0  0
  1  2  1  0
  2  3  1  0
  2  5  1  0
  3  4  1  0
  5  6  2  0
  5 10  1  0
  6  7  1  0
  7  8  2  0
  8  9  1  0
  9 10  2  0
 10 11  1  0
 11 12  1  0
 11 15  2  0
 12 13  1  0
 12 68  1  0
 13 14  1  0
 15 16  1  0
 15 67  1  0
 16 17  1  0
 17 18  1  0
 17 19  1  0
 17 20  1  0
 20 21  1  0
 21 22  1  0
 22 23  1  0
 22 66  2  0
 23 24  1  0
 23 65  1  0
 24 25  1  0
 25 26  1  0
 25 63  1  0
 26 27  1  0
 26 62  2  0
 27 28  1  0
 27 55  1  0
 28 29  1  0
 29 30  1  0
 29 54  2  0
 30 31  1  0
 30 34  1  0
 31 32  1  0
 31 33  1  0
 34 35  1  0
 34 53  1  0
 35 36  1  0
 35 52  2  0
 36 37  1  0
 36 51  1  0
 36 73  1  0
 37 38  1  0
 38 39  1  0
 39 40  1  0
 39 50  1  0
 40 41  1  0
 40 49  2  0
 42 43  1  0
 43 44  1  0
 43 47  1  0
 43 48  1  0
 44 45  1  0
 44 46  1  0
 50 51  1  0
 55 56  1  0
 56 57  1  0
 56 61  1  0
 57 58  1  0
 58 59  1  0
 58 71  1  0
 59 60  1  0
 60 61  1  0
 63 64  1  0
 64 65  1  0
 67 68  2  0
 67 72  1  0
 68 69  1  0
 69 70  2  0
 70 71  1  0
 71 72  2  0
 41 42  3  0
  1 74  1  0
  1 75  1  0
  1 76  1  0
  2 77  1  6
  4 78  1  0
  4 79  1  0
  4 80  1  0
  7 81  1  0
  8 82  1  0
  9 83  1  0
 13 84  1  0
 13 85  1  0
 14 86  1  0
 14 87  1  0
 14 88  1  0
 16 89  1  0
 16 90  1  0
 18 91  1  0
 18 92  1  0
 18 93  1  0
 19 94  1  0
 19 95  1  0
 19 96  1  0
 20 97  1  0
 20 98  1  0
 23 99  1  6
 24100  1  0
 27101  1  6
 28102  1  0
 30103  1  1
 31104  1  0
 32105  1  0
 32106  1  0
 32107  1  0
 33108  1  0
 33109  1  0
 33110  1  0
 37111  1  0
 37112  1  0
 38113  1  0
 38114  1  0
 45115  1  0
 45116  1  0
 45117  1  0
 46118  1  0
 46119  1  0
 46120  1  0
 47121  1  0
 47122  1  0
 47123  1  0
 48124  1  0
 48125  1  0
 48126  1  0
 50127  1  0
 50128  1  0
 51129  1  0
 51130  1  0
 53131  1  0
 53132  1  0
 53133  1  0
 55134  1  0
 55135  1  0
 56136  1  6
 57137  1  0
 57138  1  0
 59139  1  0
 59140  1  0
 60141  1  0
 60142  1  0
 63143  1  0
 63144  1  0
 64145  1  0
 64146  1  0
 65147  1  0
 65148  1  0
 69149  1  0
 70150  1  0
 72151  1  0
M  END
$$$$
