mol_bioactive_11
     RDKit          3D

151157  0  0  0  0  0  0  0  0999 V2000
   -0.6878   15.8648  -10.4216 C   0  0  0  0  0  0  0  0  0  0  0  0
    0.2065   15.2749  -11.5068 C   0  0  2  0  0  0  0  0  0  0  0  0
   -0.5288   14.4354  -12.4096 O   0  0  0  0  0  0  0  0  0  0  0  0
   -1.3316   15.1617  -13.3299 C   0  0  0  0  0  0  0  0  0  0  0  0
    1.4287   14.5355  -10.9714 C   0  0  0  0  0  0  0  0  0  0  0  0
    2.6154   15.1522  -11.2634 N   0  0  0  0  0  0  0  0  0  0  0  0
    3.7646   14.5153  -10.9527 C   0  0  0  0  0  0  0  0  0  0  0  0
    3.8116   13.2688  -10.3740 C   0  0  0  0  0  0  0  0  0  0  0  0
    2.6052   12.6546  -10.0555 C   0  0  0  0  0  0  0  0  0  0  0  0
    1.3832   13.2966  -10.3082 C   0  0  0  0  0  0  0  0  0  0  0  0
    0.1520   12.5995   -9.9151 C   0  0  0  0  0  0  0  0  0  0  0  0
   -0.4555   11.6642  -10.7374 N   0  0  0  0  0  0  0  0  0  0  0  0
    0.0395   11.2203  -12.0356 C   0  0  0  0  0  0  0  0  0  0  0  0
    0.7121    9.8578  -11.9585 C   0  0  0  0  0  0  0  0  0  0  0  0
   -0.6153   12.6915   -8.7499 C   0  0  0  0  0  0  0  0  0  0  0  0
   -0.4171   13.5908   -7.5468 C   0  0  0  0  0  0  0  0  0  0  0  0
    0.6007   13.1919   -6.4373 C   0  0  0  0  0  0  0  0  0  0  0  0
    0.3309   14.1141   -5.2234 C   0  0  0  0  0  0  0  0  0  0  0  0
    2.0482   13.4605   -6.8898 C   0  0  0  0  0  0  0  0  0  0  0  0
    0.5065   11.7040   -6.0041 C   0  0  0  0  0  0  0  0  0  0  0  0
   -0.6062   11.4583   -5.1334 O   0  0  0  0  0  0  0  0  0  0  0  0
   -0.5932   10.1927   -4.6080 C   0  0  0  0  0  0  0  0  0  0  0  0
   -1.6738   10.0446   -3.5306 C   0  0  1  0  0  0  0  0  0  0  0  0
   -2.2683    8.7027   -3.6153 N   0  0  0  0  0  0  0  0  0  0  0  0
   -3.2598    8.5044   -2.6345 N   0  0  0  0  0  0  0  0  0  0  0  0
   -4.6038    8.2115   -2.9040 C   0  0  0  0  0  0  0  0  0  0  0  0
   -5.1248    8.5702   -4.3156 C   0  0  1  0  0  0  0  0  0  0  0  0
   -6.2843    7.7473   -4.6515 N   0  0  0  0  0  0  0  0  0  0  0  0
   -6.1058    6.5249   -5.2685 C   0  0  0  0  0  0  0  0  0  0  0  0
   -7.4063    5.7055   -5.4706 C   0  0  2  0  0  0  0  0  0  0  0  0
   -7.1553    4.1966   -5.1976 C   0  0  0  0  0  0  0  0  0  0  0  0
   -8.3729    3.3353   -5.5454 C   0  0  0  0  0  0  0  0  0  0  0  0
   -6.7949    3.9686   -3.7220 C   0  0  0  0  0  0  0  0  0  0  0  0
   -7.9532    5.9482   -6.8363 N   0  0  0  0  0  0  0  0  0  0  0  0
   -9.2878    6.3458   -6.9475 C   0  0  0  0  0  0  0  0  0  0  0  0
   -9.9449    6.4492   -8.3441 C   0  0  0  0  0  0  0  0  0  0  0  0
  -11.2968    7.1690   -8.2553 C   0  0  0  0  0  0  0  0  0  0  0  0
  -12.0175    7.1788   -9.5997 C   0  0  0  0  0  0  0  0  0  0  0  0
  -12.1127    5.8358  -10.1682 N   0  0  0  0  0  0  0  0  0  0  0  0
  -13.1925    5.4022  -10.9369 C   0  0  0  0  0  0  0  0  0  0  0  0
  -14.4279    6.1547  -10.9003 C   0  0  0  0  0  0  0  0  0  0  0  0
  -15.4826    6.7342  -10.8772 C   0  0  0  0  0  0  0  0  0  0  0  0
  -16.8055    7.4015  -10.8437 C   0  0  0  0  0  0  0  0  0  0  0  0
  -16.7264    8.7892  -10.3067 N   0  0  0  0  0  0  0  0  0  0  0  0
  -16.3121    8.8738   -8.9026 C   0  0  0  0  0  0  0  0  0  0  0  0
  -15.9104    9.7035  -11.1103 C   0  0  0  0  0  0  0  0  0  0  0  0
  -17.7660    6.5374   -9.9869 C   0  0  0  0  0  0  0  0  0  0  0  0
  -17.3952    7.4057  -12.2758 C   0  0  0  0  0  0  0  0  0  0  0  0
  -13.1684    4.3930  -11.6328 O   0  0  0  0  0  0  0  0  0  0  0  0
  -10.8622    5.1013  -10.2668 C   0  0  0  0  0  0  0  0  0  0  0  0
  -10.1558    5.0386   -8.9218 C   0  0  0  0  0  0  0  0  0  0  0  0
   -9.9701    6.5349   -5.9337 O   0  0  0  0  0  0  0  0  0  0  0  0
   -7.0092    5.8768   -7.9569 C   0  0  0  0  0  0  0  0  0  0  0  0
   -5.0130    6.1736   -5.7185 O   0  0  0  0  0  0  0  0  0  0  0  0
   -5.5068   10.0546   -4.3148 C   0  0  0  0  0  0  0  0  0  0  0  0
   -5.4855   10.7872   -5.6679 C   0  0  1  0  0  0  0  0  0  0  0  0
   -5.3104    9.9245   -6.9382 C   0  0  0  0  0  0  0  0  0  0  0  0
   -5.2917   10.7650   -8.1570 N   0  0  0  0  0  0  0  0  0  0  0  0
   -6.0232   12.0442   -8.0336 C   0  0  0  0  0  0  0  0  0  0  0  0
   -7.1586   11.8914   -7.0187 C   0  0  0  0  0  0  0  0  0  0  0  0
   -6.6781   11.6146   -5.6936 O   0  0  0  0  0  0  0  0  0  0  0  0
   -5.3859    7.8051   -2.0387 O   0  0  0  0  0  0  0  0  0  0  0  0
   -2.7395    8.5176   -1.2644 C   0  0  0  0  0  0  0  0  0  0  0  0
   -2.0385    9.8564   -1.0120 C   0  0  0  0  0  0  0  0  0  0  0  0
   -1.0438   10.2010   -2.1344 C   0  0  0  0  0  0  0  0  0  0  0  0
    0.1952    9.3125   -4.9333 O   0  0  0  0  0  0  0  0  0  0  0  0
   -1.7951   11.8845   -8.9669 C   0  0  0  0  0  0  0  0  0  0  0  0
   -1.6598   11.2544  -10.2014 C   0  0  0  0  0  0  0  0  0  0  0  0
   -2.6487   10.3994  -10.7124 C   0  0  0  0  0  0  0  0  0  0  0  0
   -3.8306   10.2452   -9.9844 C   0  0  0  0  0  0  0  0  0  0  0  0
   -4.0337   10.8964   -8.7677 C   0  0  0  0  0  0  0  0  0  0  0  0
   -2.9959   11.6839   -8.2399 C   0  0  0  0  0  0  0  0  0  0  0  0
   -9.1678    7.1672   -9.2158 F   0  0  0  0  0  0  0  0  0  0  0  0
   -1.3583   15.1149   -9.9961 H   0  0  0  0  0  0  0  0  0  0  0  0
   -0.1045   16.3239   -9.6181 H   0  0  0  0  0  0  0  0  0  0  0  0
   -1.3381   16.6395  -10.8433 H   0  0  0  0  0  0  0  0  0  0  0  0
    0.6016   16.1174  -12.0926 H   0  0  0  0  0  0  0  0  0  0  0  0
   -2.1274   15.7028  -12.8123 H   0  0  0  0  0  0  0  0  0  0  0  0
   -0.7211   15.8566  -13.9142 H   0  0  0  0  0  0  0  0  0  0  0  0
   -1.7945   14.4504  -14.0176 H   0  0  0  0  0  0  0  0  0  0  0  0
    4.6716   15.0518  -11.2114 H   0  0  0  0  0  0  0  0  0  0  0  0
    4.7589   12.7862  -10.1610 H   0  0  0  0  0  0  0  0  0  0  0  0
    2.6155   11.6678   -9.5980 H   0  0  0  0  0  0  0  0  0  0  0  0
   -0.8063   11.1981  -12.7303 H   0  0  0  0  0  0  0  0  0  0  0  0
    0.7431   11.9595  -12.4280 H   0  0  0  0  0  0  0  0  0  0  0  0
    1.5266    9.8571  -11.2254 H   0  0  0  0  0  0  0  0  0  0  0  0
    0.0006    9.0776  -11.6653 H   0  0  0  0  0  0  0  0  0  0  0  0
    1.1290    9.5838  -12.9339 H   0  0  0  0  0  0  0  0  0  0  0  0
   -0.1604   14.5931   -7.9109 H   0  0  0  0  0  0  0  0  0  0  0  0
   -1.3978   13.7217   -7.0745 H   0  0  0  0  0  0  0  0  0  0  0  0
    1.0058   13.8830   -4.3914 H   0  0  0  0  0  0  0  0  0  0  0  0
    0.4820   15.1654   -5.4906 H   0  0  0  0  0  0  0  0  0  0  0  0
   -0.6955   14.0132   -4.8549 H   0  0  0  0  0  0  0  0  0  0  0  0
    2.7228   13.5543   -6.0318 H   0  0  0  0  0  0  0  0  0  0  0  0
    2.4299   12.6304   -7.4815 H   0  0  0  0  0  0  0  0  0  0  0  0
    2.1334   14.3825   -7.4698 H   0  0  0  0  0  0  0  0  0  0  0  0
    0.4543   11.0369   -6.8700 H   0  0  0  0  0  0  0  0  0  0  0  0
    1.4224   11.4484   -5.4513 H   0  0  0  0  0  0  0  0  0  0  0  0
   -2.4468   10.8032   -3.7026 H   0  0  0  0  0  0  0  0  0  0  0  0
   -2.4975    8.4045   -4.5622 H   0  0  0  0  0  0  0  0  0  0  0  0
   -4.3420    8.3600   -5.0407 H   0  0  0  0  0  0  0  0  0  0  0  0
   -7.0823    7.8268   -4.0294 H   0  0  0  0  0  0  0  0  0  0  0  0
   -8.1281    6.0548   -4.7250 H   0  0  0  0  0  0  0  0  0  0  0  0
   -6.3132    3.8469   -5.8070 H   0  0  0  0  0  0  0  0  0  0  0  0
   -9.2555    3.6420   -4.9728 H   0  0  0  0  0  0  0  0  0  0  0  0
   -8.6215    3.3962   -6.6114 H   0  0  0  0  0  0  0  0  0  0  0  0
   -8.1782    2.2804   -5.3235 H   0  0  0  0  0  0  0  0  0  0  0  0
   -7.6077    4.2914   -3.0637 H   0  0  0  0  0  0  0  0  0  0  0  0
   -6.6100    2.9068   -3.5313 H   0  0  0  0  0  0  0  0  0  0  0  0
   -5.8906    4.5161   -3.4390 H   0  0  0  0  0  0  0  0  0  0  0  0
  -11.9429    6.6754   -7.5156 H   0  0  0  0  0  0  0  0  0  0  0  0
  -11.1483    8.2028   -7.9205 H   0  0  0  0  0  0  0  0  0  0  0  0
  -13.0075    7.6310   -9.4768 H   0  0  0  0  0  0  0  0  0  0  0  0
  -11.4748    7.7983  -10.3241 H   0  0  0  0  0  0  0  0  0  0  0  0
  -17.0025    8.3465   -8.2398 H   0  0  0  0  0  0  0  0  0  0  0  0
  -15.3018    8.4856   -8.7387 H   0  0  0  0  0  0  0  0  0  0  0  0
  -16.3280    9.9159   -8.5593 H   0  0  0  0  0  0  0  0  0  0  0  0
  -15.9481   10.7181  -10.6921 H   0  0  0  0  0  0  0  0  0  0  0  0
  -14.8578    9.4011  -11.1546 H   0  0  0  0  0  0  0  0  0  0  0  0
  -16.2915    9.8015  -12.1317 H   0  0  0  0  0  0  0  0  0  0  0  0
  -17.3670    6.3371   -8.9845 H   0  0  0  0  0  0  0  0  0  0  0  0
  -18.7452    7.0204   -9.8800 H   0  0  0  0  0  0  0  0  0  0  0  0
  -17.9310    5.5547  -10.4496 H   0  0  0  0  0  0  0  0  0  0  0  0
  -18.3599    7.9270  -12.3059 H   0  0  0  0  0  0  0  0  0  0  0  0
  -16.7271    7.8759  -13.0078 H   0  0  0  0  0  0  0  0  0  0  0  0
  -17.5638    6.3830  -12.6367 H   0  0  0  0  0  0  0  0  0  0  0  0
  -11.0381    4.0845  -10.6281 H   0  0  0  0  0  0  0  0  0  0  0  0
  -10.2390    5.6059  -11.0151 H   0  0  0  0  0  0  0  0  0  0  0  0
   -9.2066    4.5136   -9.0581 H   0  0  0  0  0  0  0  0  0  0  0  0
  -10.7517    4.4389   -8.2209 H   0  0  0  0  0  0  0  0  0  0  0  0
   -6.3838    4.9873   -7.8541 H   0  0  0  0  0  0  0  0  0  0  0  0
   -7.5008    5.8195   -8.9271 H   0  0  0  0  0  0  0  0  0  0  0  0
   -6.3860    6.7750   -7.9503 H   0  0  0  0  0  0  0  0  0  0  0  0
   -6.4912   10.1742   -3.8352 H   0  0  0  0  0  0  0  0  0  0  0  0
   -4.8264   10.6107   -3.6519 H   0  0  0  0  0  0  0  0  0  0  0  0
   -4.6487   11.4983   -5.6309 H   0  0  0  0  0  0  0  0  0  0  0  0
   -4.4014    9.3153   -6.8883 H   0  0  0  0  0  0  0  0  0  0  0  0
   -6.1609    9.2405   -7.0392 H   0  0  0  0  0  0  0  0  0  0  0  0
   -5.3650   12.8535   -7.6940 H   0  0  0  0  0  0  0  0  0  0  0  0
   -6.4326   12.3222   -9.0111 H   0  0  0  0  0  0  0  0  0  0  0  0
   -7.7498   12.8121   -6.9624 H   0  0  0  0  0  0  0  0  0  0  0  0
   -7.8426   11.0835   -7.3064 H   0  0  0  0  0  0  0  0  0  0  0  0
   -3.5461    8.3742   -0.5373 H   0  0  0  0  0  0  0  0  0  0  0  0
   -2.0357    7.6832   -1.1632 H   0  0  0  0  0  0  0  0  0  0  0  0
   -2.7924   10.6527   -0.9595 H   0  0  0  0  0  0  0  0  0  0  0  0
   -1.5225    9.8363   -0.0460 H   0  0  0  0  0  0  0  0  0  0  0  0
   -0.1661    9.5469   -2.0433 H   0  0  0  0  0  0  0  0  0  0  0  0
   -0.6752   11.2261   -2.0025 H   0  0  0  0  0  0  0  0  0  0  0  0
   -2.5358    9.9033  -11.6701 H   0  0  0  0  0  0  0  0  0  0  0  0
   -4.6250    9.6214  -10.3897 H   0  0  0  0  0  0  0  0  0  0  0  0
   -3.1262   12.1888   -7.2913 H   0  0  0  0  0  0  0  0  0  0  0  0
  1  2  1  0
  2  3  1  0
  2  5  1  0
  3  4  1  0
  5  6  2  0
  5 10  1  0
  6  7  1  0
  7  8  2  0
  8  9  1  0
  9 10  2  0
 10 11  1  0
 11 12  1  0
 11 15  2  0
 12 13  1  0
 12 68  1  0
 13 14  1  0
 15 16  1  0
 15 67  1  0
 16 17  1  0
 17 18  1  0
 17 19  1  0
 17 20  1  0
 20 21  1  0
 21 22  1  0
 22 23  1  0
 22 66  2  0
 23 24  1  0
 23 65  1  0
 24 25  1  0
 25 26  1  0
 25 63  1  0
 26 27  1  0
 26 62  2  0
 27 28  1  0
 27 55  1  0
 28 29  1  0
 29 30  1  0
 29 54  2  0
 30 31  1  0
 30 34  1  0
 31 32  1  0
 31 33  1  0
 34 35  1  0
 34 53  1  0
 35 36  1  0
 35 52  2  0
 36 37  1  0
 36 51  1  0
 36 73  1  0
 37 38  1  0
 38 39  1  0
 39 40  1  0
 39 50  1  0
 40 41  1  0
 40 49  2  0
 42 43  1  0
 43 44  1  0
 43 47  1  0
 43 48  1  0
 44 45  1  0
 44 46  1  0
 50 51  1  0
 55 56  1  0
 56 57  1  0
 56 61  1  0
 57 58  1  0
 58 59  1  0
 58 71  1  0
 59 60  1  0
 60 61  1  0
 63 64  1  0
 64 65  1  0
 67 68  2  0
 67 72  1  0
 68 69  1  0
 69 70  2  0
 70 71  1  0
 71 72  2  0
 41 42  3  0
  1 74  1  0
  1 75  1  0
  1 76  1  0
  2 77  1  6
  4 78  1  0
  4 79  1  0
  4 80  1  0
  7 81  1  0
  8 82  1  0
  9 83  1  0
 13 84  1  0
 13 85  1  0
 14 86  1  0
 14 87  1  0
 14 88  1  0
 16 89  1  0
 16 90  1  0
 18 91  1  0
 18 92  1  0
 18 93  1  0
 19 94  1  0
 19 95  1  0
 19 96  1  0
 20 97  1  0
 20 98  1  0
 23 99  1  6
 24100  1  0
 27101  1  6
 28102  1  0
 30103  1  1
 31104  1  0
 32105  1  0
 32106  1  0
 32107  1  0
 33108  1  0
 33109  1  0
 33110  1  0
 37111  1  0
 37112  1  0
 38113  1  0
 38114  1  0
 45115  1  0
 45116  1  0
 45117  1  0
 46118  1  0
 46119  1  0
 46120  1  0
 47121  1  0
 47122  1  0
 47123  1  0
 48124  1  0
 48125  1  0
 48126  1  0
 50127  1  0
 50128  1  0
 51129  1  0
 51130  1  0
 53131  1  0
 53132  1  0
 53133  1  0
 55134  1  0
 55135  1  0
 56136  1  1
 57137  1  0
 57138  1  0
 59139  1  0
 59140  1  0
 60141  1  0
 60142  1  0
 63143  1  0
 63144  1  0
 64145  1  0
 64146  1  0
 65147  1  0
 65148  1  0
 69149  1  0
 70150  1  0
 72151  1  0
M  END
$$$$
