 xtb: 6.7.1 (edcfbbe)
          08182520103D

151157  0     0  0            999 V2000
   -0.7528   15.3594   -8.6247 C   0  0  0  0  0  0  0  0  0  0  0  0
   -0.0235   15.2856   -9.9717 C   0  0  0  0  0  0  0  0  0  0  0  0
   -0.8386   14.7928  -11.0202 O   0  0  0  0  0  0  0  0  0  0  0  0
   -1.9384   15.6033  -11.3402 C   0  0  0  0  0  0  0  0  0  0  0  0
    1.2029   14.4021   -9.8924 C   0  0  0  0  0  0  0  0  0  0  0  0
    2.3471   15.0640   -9.8032 N   0  0  0  0  0  0  0  0  0  0  0  0
    3.4869   14.3982   -9.7882 C   0  0  0  0  0  0  0  0  0  0  0  0
    3.5546   13.0204   -9.9105 C   0  0  0  0  0  0  0  0  0  0  0  0
    2.3634   12.3201   -9.9911 C   0  0  0  0  0  0  0  0  0  0  0  0
    1.1504   13.0019   -9.9459 C   0  0  0  0  0  0  0  0  0  0  0  0
   -0.1242   12.2681   -9.9670 C   0  0  0  0  0  0  0  0  0  0  0  0
   -0.7321   11.9472  -11.1518 N   0  0  0  0  0  0  0  0  0  0  0  0
   -0.2025   12.1844  -12.4654 C   0  0  0  0  0  0  0  0  0  0  0  0
    0.5155   10.9521  -13.0162 C   0  0  0  0  0  0  0  0  0  0  0  0
   -0.9005   11.8648   -8.9035 C   0  0  0  0  0  0  0  0  0  0  0  0
   -0.5522   12.0340   -7.4570 C   0  0  0  0  0  0  0  0  0  0  0  0
    0.0729   10.8024   -6.7561 C   0  0  0  0  0  0  0  0  0  0  0  0
    0.7002   11.2682   -5.4386 C   0  0  0  0  0  0  0  0  0  0  0  0
    1.1530   10.1583   -7.6224 C   0  0  0  0  0  0  0  0  0  0  0  0
   -0.9942    9.7325   -6.4734 C   0  0  0  0  0  0  0  0  0  0  0  0
   -1.9885   10.1871   -5.5536 O   0  0  0  0  0  0  0  0  0  0  0  0
   -1.8657    9.8355   -4.2749 C   0  0  0  0  0  0  0  0  0  0  0  0
   -3.0352   10.4035   -3.4839 C   0  0  0  0  0  0  0  0  0  0  0  0
   -3.9729    9.3106   -3.2186 N   0  0  0  0  0  0  0  0  0  0  0  0
   -5.1715    9.8411   -2.7275 N   0  0  0  0  0  0  0  0  0  0  0  0
   -6.2149   10.2560   -3.4807 C   0  0  0  0  0  0  0  0  0  0  0  0
   -6.1453    9.8305   -4.9618 C   0  0  0  0  0  0  0  0  0  0  0  0
   -6.5710    8.4479   -5.0645 N   0  0  0  0  0  0  0  0  0  0  0  0
   -5.7543    7.4457   -5.4136 C   0  0  0  0  0  0  0  0  0  0  0  0
   -6.4957    6.1299   -5.6616 C   0  0  0  0  0  0  0  0  0  0  0  0
   -5.6397    4.8895   -5.3874 C   0  0  0  0  0  0  0  0  0  0  0  0
   -6.4576    3.6213   -5.6226 C   0  0  0  0  0  0  0  0  0  0  0  0
   -5.1514    4.9342   -3.9396 C   0  0  0  0  0  0  0  0  0  0  0  0
   -7.0065    6.2108   -7.0367 N   0  0  0  0  0  0  0  0  0  0  0  0
   -8.2413    6.7262   -7.1754 C   0  0  0  0  0  0  0  0  0  0  0  0
   -8.9328    6.7173   -8.5525 C   0  0  0  0  0  0  0  0  0  0  0  0
  -10.2478    7.4964   -8.4712 C   0  0  0  0  0  0  0  0  0  0  0  0
  -10.9959    7.4053   -9.8019 C   0  0  0  0  0  0  0  0  0  0  0  0
  -11.2147    6.0262  -10.1514 N   0  0  0  0  0  0  0  0  0  0  0  0
  -12.4201    5.3974  -10.1241 C   0  0  0  0  0  0  0  0  0  0  0  0
  -13.5478    6.2597   -9.8704 C   0  0  0  0  0  0  0  0  0  0  0  0
  -14.6007    6.8078   -9.6635 C   0  0  0  0  0  0  0  0  0  0  0  0
  -15.7726    7.6380   -9.3882 C   0  0  0  0  0  0  0  0  0  0  0  0
  -15.3902    9.0198   -9.0521 N   0  0  0  0  0  0  0  0  0  0  0  0
  -14.5887    9.1245   -7.8475 C   0  0  0  0  0  0  0  0  0  0  0  0
  -14.7647    9.7355  -10.1473 C   0  0  0  0  0  0  0  0  0  0  0  0
  -16.5530    7.0130   -8.2203 C   0  0  0  0  0  0  0  0  0  0  0  0
  -16.6764    7.6270  -10.6315 C   0  0  0  0  0  0  0  0  0  0  0  0
  -12.5491    4.2035  -10.3206 O   0  0  0  0  0  0  0  0  0  0  0  0
  -10.0030    5.2596  -10.3021 C   0  0  0  0  0  0  0  0  0  0  0  0
   -9.1911    5.2765   -9.0029 C   0  0  0  0  0  0  0  0  0  0  0  0
   -8.8793    7.1267   -6.2084 O   0  0  0  0  0  0  0  0  0  0  0  0
   -6.0356    5.9791   -8.0858 C   0  0  0  0  0  0  0  0  0  0  0  0
   -4.5520    7.5865   -5.5788 O   0  0  0  0  0  0  0  0  0  0  0  0
   -6.9905   10.7305   -5.8667 C   0  0  0  0  0  0  0  0  0  0  0  0
   -6.2676   11.0404   -7.1892 C   0  0  0  0  0  0  0  0  0  0  0  0
   -5.7958    9.7618   -7.9132 C   0  0  0  0  0  0  0  0  0  0  0  0
   -5.5577    9.9980   -9.3119 N   0  0  0  0  0  0  0  0  0  0  0  0
   -6.7604   10.4222  -10.0110 C   0  0  0  0  0  0  0  0  0  0  0  0
   -7.7626   11.0424   -9.0199 C   0  0  0  0  0  0  0  0  0  0  0  0
   -7.1023   11.8104   -8.0440 O   0  0  0  0  0  0  0  0  0  0  0  0
   -7.1700   10.8453   -3.0147 O   0  0  0  0  0  0  0  0  0  0  0  0
   -4.9704   10.3425   -1.3807 C   0  0  0  0  0  0  0  0  0  0  0  0
   -3.9084   11.4472   -1.4026 C   0  0  0  0  0  0  0  0  0  0  0  0
   -2.6434   10.9629   -2.1149 C   0  0  0  0  0  0  0  0  0  0  0  0
   -0.9940    9.1490   -3.8184 O   0  0  0  0  0  0  0  0  0  0  0  0
   -2.0931   11.3124   -9.4660 C   0  0  0  0  0  0  0  0  0  0  0  0
   -1.9400   11.3737  -10.8714 C   0  0  0  0  0  0  0  0  0  0  0  0
   -2.9403   10.9185  -11.7200 C   0  0  0  0  0  0  0  0  0  0  0  0
   -4.1078   10.4612  -11.1584 C   0  0  0  0  0  0  0  0  0  0  0  0
   -4.3209   10.4603   -9.7631 C   0  0  0  0  0  0  0  0  0  0  0  0
   -3.2963   10.8604   -8.9173 C   0  0  0  0  0  0  0  0  0  0  0  0
   -8.1391    7.3567   -9.5073 F   0  0  0  0  0  0  0  0  0  0  0  0
   -1.3049   14.4394   -8.4575 H   0  0  0  0  0  0  0  0  0  0  0  0
   -0.0268   15.4995   -7.8285 H   0  0  0  0  0  0  0  0  0  0  0  0
   -1.4447   16.1980   -8.6105 H   0  0  0  0  0  0  0  0  0  0  0  0
    0.3358   16.2962  -10.2311 H   0  0  0  0  0  0  0  0  0  0  0  0
   -2.7049   15.5821  -10.5589 H   0  0  0  0  0  0  0  0  0  0  0  0
   -1.6297   16.6419  -11.5132 H   0  0  0  0  0  0  0  0  0  0  0  0
   -2.3586   15.1943  -12.2577 H   0  0  0  0  0  0  0  0  0  0  0  0
    4.3788   15.0040   -9.6972 H   0  0  0  0  0  0  0  0  0  0  0  0
    4.5053   12.5111   -9.9419 H   0  0  0  0  0  0  0  0  0  0  0  0
    2.3669   11.2442  -10.0903 H   0  0  0  0  0  0  0  0  0  0  0  0
   -1.0297   12.4585  -13.1256 H   0  0  0  0  0  0  0  0  0  0  0  0
    0.4833   13.0327  -12.4121 H   0  0  0  0  0  0  0  0  0  0  0  0
    1.3721   10.7015  -12.3952 H   0  0  0  0  0  0  0  0  0  0  0  0
   -0.1595   10.0994  -13.0339 H   0  0  0  0  0  0  0  0  0  0  0  0
    0.8652   11.1438  -14.0271 H   0  0  0  0  0  0  0  0  0  0  0  0
    0.1683   12.8514   -7.3742 H   0  0  0  0  0  0  0  0  0  0  0  0
   -1.4490   12.3119   -6.8971 H   0  0  0  0  0  0  0  0  0  0  0  0
    1.0527   10.4182   -4.8591 H   0  0  0  0  0  0  0  0  0  0  0  0
    1.5426   11.9273   -5.6374 H   0  0  0  0  0  0  0  0  0  0  0  0
   -0.0229   11.8150   -4.8359 H   0  0  0  0  0  0  0  0  0  0  0  0
    1.5903    9.3050   -7.1087 H   0  0  0  0  0  0  0  0  0  0  0  0
    0.7340    9.8191   -8.5667 H   0  0  0  0  0  0  0  0  0  0  0  0
    1.9400   10.8800   -7.8226 H   0  0  0  0  0  0  0  0  0  0  0  0
   -1.5252    9.4765   -7.3921 H   0  0  0  0  0  0  0  0  0  0  0  0
   -0.5238    8.8377   -6.0543 H   0  0  0  0  0  0  0  0  0  0  0  0
   -3.4990   11.1990   -4.0948 H   0  0  0  0  0  0  0  0  0  0  0  0
   -4.1052    8.6988   -4.0205 H   0  0  0  0  0  0  0  0  0  0  0  0
   -5.1052    9.8732   -5.2982 H   0  0  0  0  0  0  0  0  0  0  0  0
   -7.5669    8.2717   -4.9982 H   0  0  0  0  0  0  0  0  0  0  0  0
   -7.3750    6.0928   -5.0099 H   0  0  0  0  0  0  0  0  0  0  0  0
   -4.7641    4.8968   -6.0405 H   0  0  0  0  0  0  0  0  0  0  0  0
   -7.2916    3.5796   -4.9251 H   0  0  0  0  0  0  0  0  0  0  0  0
   -6.8598    3.5803   -6.6317 H   0  0  0  0  0  0  0  0  0  0  0  0
   -5.8372    2.7426   -5.4657 H   0  0  0  0  0  0  0  0  0  0  0  0
   -5.9922    5.0014   -3.2521 H   0  0  0  0  0  0  0  0  0  0  0  0
   -4.5919    4.0308   -3.7111 H   0  0  0  0  0  0  0  0  0  0  0  0
   -4.4991    5.7876   -3.7778 H   0  0  0  0  0  0  0  0  0  0  0  0
  -10.8493    7.0764   -7.6653 H   0  0  0  0  0  0  0  0  0  0  0  0
  -10.0368    8.5393   -8.2302 H   0  0  0  0  0  0  0  0  0  0  0  0
  -11.9555    7.9200   -9.7297 H   0  0  0  0  0  0  0  0  0  0  0  0
  -10.3984    7.8805  -10.5897 H   0  0  0  0  0  0  0  0  0  0  0  0
  -15.1552    8.7723   -6.9896 H   0  0  0  0  0  0  0  0  0  0  0  0
  -13.6440    8.5623   -7.9041 H   0  0  0  0  0  0  0  0  0  0  0  0
  -14.3536   10.1746   -7.6807 H   0  0  0  0  0  0  0  0  0  0  0  0
  -14.4815   10.7259   -9.7942 H   0  0  0  0  0  0  0  0  0  0  0  0
  -13.8634    9.2355  -10.5350 H   0  0  0  0  0  0  0  0  0  0  0  0
  -15.4722    9.8645  -10.9624 H   0  0  0  0  0  0  0  0  0  0  0  0
  -15.9023    6.7812   -7.3819 H   0  0  0  0  0  0  0  0  0  0  0  0
  -17.3267    7.7044   -7.8967 H   0  0  0  0  0  0  0  0  0  0  0  0
  -17.0175    6.0859   -8.5459 H   0  0  0  0  0  0  0  0  0  0  0  0
  -17.4730    8.3551  -10.5030 H   0  0  0  0  0  0  0  0  0  0  0  0
  -16.1176    7.8571  -11.5345 H   0  0  0  0  0  0  0  0  0  0  0  0
  -17.1137    6.6396  -10.7547 H   0  0  0  0  0  0  0  0  0  0  0  0
  -10.2841    4.2368  -10.5608 H   0  0  0  0  0  0  0  0  0  0  0  0
   -9.4057    5.6901  -11.1139 H   0  0  0  0  0  0  0  0  0  0  0  0
   -8.2470    4.7547   -9.1583 H   0  0  0  0  0  0  0  0  0  0  0  0
   -9.7466    4.7702   -8.2117 H   0  0  0  0  0  0  0  0  0  0  0  0
   -5.0910    6.4394   -7.7920 H   0  0  0  0  0  0  0  0  0  0  0  0
   -5.8712    4.9101   -8.2344 H   0  0  0  0  0  0  0  0  0  0  0  0
   -6.3438    6.4256   -9.0233 H   0  0  0  0  0  0  0  0  0  0  0  0
   -7.9455   10.2446   -6.0783 H   0  0  0  0  0  0  0  0  0  0  0  0
   -7.2148   11.6660   -5.3523 H   0  0  0  0  0  0  0  0  0  0  0  0
   -5.4056   11.6875   -6.9824 H   0  0  0  0  0  0  0  0  0  0  0  0
   -4.8918    9.3587   -7.4591 H   0  0  0  0  0  0  0  0  0  0  0  0
   -6.5791    8.9980   -7.8400 H   0  0  0  0  0  0  0  0  0  0  0  0
   -6.4938   11.1705  -10.7600 H   0  0  0  0  0  0  0  0  0  0  0  0
   -7.2296    9.5656  -10.5128 H   0  0  0  0  0  0  0  0  0  0  0  0
   -8.4302   11.7328   -9.5384 H   0  0  0  0  0  0  0  0  0  0  0  0
   -8.3746   10.2598   -8.5497 H   0  0  0  0  0  0  0  0  0  0  0  0
   -5.9256   10.7199   -1.0156 H   0  0  0  0  0  0  0  0  0  0  0  0
   -4.6342    9.5060   -0.7644 H   0  0  0  0  0  0  0  0  0  0  0  0
   -4.3133   12.3140   -1.9306 H   0  0  0  0  0  0  0  0  0  0  0  0
   -3.6753   11.7485   -0.3816 H   0  0  0  0  0  0  0  0  0  0  0  0
   -2.1689   10.1608   -1.5491 H   0  0  0  0  0  0  0  0  0  0  0  0
   -1.9313   11.7814   -2.2265 H   0  0  0  0  0  0  0  0  0  0  0  0
   -2.8169   10.9238  -12.7929 H   0  0  0  0  0  0  0  0  0  0  0  0
   -4.8864   10.0837  -11.8029 H   0  0  0  0  0  0  0  0  0  0  0  0
   -3.4170   10.8651   -7.8458 H   0  0  0  0  0  0  0  0  0  0  0  0
  1  2  1  0  0  0  0
  2  3  1  0  0  0  0
  3  4  1  0  0  0  0
  2  5  1  0  0  0  0
  5  6  4  0  0  0  0
  6  7  4  0  0  0  0
  7  8  4  0  0  0  0
  8  9  4  0  0  0  0
  5 10  4  0  0  0  0
  9 10  4  0  0  0  0
 10 11  1  0  0  0  0
 11 12  1  0  0  0  0
 12 13  1  0  0  0  0
 13 14  1  0  0  0  0
 11 15  2  0  0  0  0
 15 16  1  0  0  0  0
 16 17  1  0  0  0  0
 17 18  1  0  0  0  0
 17 19  1  0  0  0  0
 17 20  1  0  0  0  0
 20 21  1  0  0  0  0
 21 22  1  0  0  0  0
 22 23  1  0  0  0  0
 23 24  1  0  0  0  0
 24 25  1  0  0  0  0
 25 26  4  0  0  0  0
 26 27  1  0  0  0  0
 27 28  1  0  0  0  0
 28 29  4  0  0  0  0
 29 30  1  0  0  0  0
 30 31  1  0  0  0  0
 31 32  1  0  0  0  0
 31 33  1  0  0  0  0
 30 34  1  0  0  0  0
 34 35  4  0  0  0  0
 35 36  1  0  0  0  0
 36 37  1  0  0  0  0
 37 38  1  0  0  0  0
 38 39  1  0  0  0  0
 39 40  4  0  0  0  0
 40 41  1  0  0  0  0
 41 42  3  0  0  0  0
 42 43  1  0  0  0  0
 43 44  1  0  0  0  0
 44 45  1  0  0  0  0
 44 46  1  0  0  0  0
 43 47  1  0  0  0  0
 43 48  1  0  0  0  0
 40 49  2  0  0  0  0
 39 50  1  0  0  0  0
 36 51  1  0  0  0  0
 50 51  1  0  0  0  0
 35 52  2  0  0  0  0
 34 53  1  0  0  0  0
 29 54  2  0  0  0  0
 27 55  1  0  0  0  0
 55 56  1  0  0  0  0
 56 57  1  0  0  0  0
 57 58  1  0  0  0  0
 58 59  1  0  0  0  0
 59 60  1  0  0  0  0
 56 61  1  0  0  0  0
 60 61  1  0  0  0  0
 26 62  2  0  0  0  0
 25 63  1  0  0  0  0
 63 64  1  0  0  0  0
 23 65  1  0  0  0  0
 64 65  1  0  0  0  0
 22 66  2  0  0  0  0
 15 67  4  0  0  0  0
 12 68  1  0  0  0  0
 67 68  4  0  0  0  0
 68 69  4  0  0  0  0
 69 70  2  0  0  0  0
 58 71  1  0  0  0  0
 70 71  4  0  0  0  0
 67 72  4  0  0  0  0
 71 72  4  0  0  0  0
 36 73  1  0  0  0  0
  1 74  1  0  0  0  0
  1 75  1  0  0  0  0
  1 76  1  0  0  0  0
  2 77  1  0  0  0  0
  4 78  1  0  0  0  0
  4 79  1  0  0  0  0
  4 80  1  0  0  0  0
  7 81  1  0  0  0  0
  8 82  1  0  0  0  0
  9 83  1  0  0  0  0
 13 84  1  0  0  0  0
 13 85  1  0  0  0  0
 14 86  1  0  0  0  0
 14 87  1  0  0  0  0
 14 88  1  0  0  0  0
 16 89  1  0  0  0  0
 16 90  1  0  0  0  0
 18 91  1  0  0  0  0
 18 92  1  0  0  0  0
 18 93  1  0  0  0  0
 19 94  1  0  0  0  0
 19 95  1  0  0  0  0
 19 96  1  0  0  0  0
 20 97  1  0  0  0  0
 20 98  1  0  0  0  0
 23 99  1  0  0  0  0
 24100  1  0  0  0  0
 27101  1  0  0  0  0
 28102  1  0  0  0  0
 30103  1  0  0  0  0
 31104  1  0  0  0  0
 32105  1  0  0  0  0
 32106  1  0  0  0  0
 32107  1  0  0  0  0
 33108  1  0  0  0  0
 33109  1  0  0  0  0
 33110  1  0  0  0  0
 37111  1  0  0  0  0
 37112  1  0  0  0  0
 38113  1  0  0  0  0
 38114  1  0  0  0  0
 45115  1  0  0  0  0
 45116  1  0  0  0  0
 45117  1  0  0  0  0
 46118  1  0  0  0  0
 46119  1  0  0  0  0
 46120  1  0  0  0  0
 47121  1  0  0  0  0
 47122  1  0  0  0  0
 47123  1  0  0  0  0
 48124  1  0  0  0  0
 48125  1  0  0  0  0
 48126  1  0  0  0  0
 50127  1  0  0  0  0
 50128  1  0  0  0  0
 51129  1  0  0  0  0
 51130  1  0  0  0  0
 53131  1  0  0  0  0
 53132  1  0  0  0  0
 53133  1  0  0  0  0
 55134  1  0  0  0  0
 55135  1  0  0  0  0
 56136  1  0  0  0  0
 57137  1  0  0  0  0
 57138  1  0  0  0  0
 59139  1  0  0  0  0
 59140  1  0  0  0  0
 60141  1  0  0  0  0
 60142  1  0  0  0  0
 63143  1  0  0  0  0
 63144  1  0  0  0  0
 64145  1  0  0  0  0
 64146  1  0  0  0  0
 65147  1  0  0  0  0
 65148  1  0  0  0  0
 69149  1  0  0  0  0
 70150  1  0  0  0  0
 72151  1  0  0  0  0
M  END
$$$$
