mol_bioactive_9
     RDKit          3D

151157  0  0  0  0  0  0  0  0999 V2000
   -4.9257   -1.4003    4.1447 C   0  0  0  0  0  0  0  0  0  0  0  0
   -4.3284   -2.7709    3.8259 C   0  0  2  0  0  0  0  0  0  0  0  0
   -5.1594   -3.4092    2.8408 O   0  0  0  0  0  0  0  0  0  0  0  0
   -4.5776   -3.4081    1.5466 C   0  0  0  0  0  0  0  0  0  0  0  0
   -4.2659   -3.6610    5.0608 C   0  0  0  0  0  0  0  0  0  0  0  0
   -5.4018   -3.7354    5.8175 N   0  0  0  0  0  0  0  0  0  0  0  0
   -5.4123   -4.5728    6.8739 C   0  0  0  0  0  0  0  0  0  0  0  0
   -4.3373   -5.3574    7.2376 C   0  0  0  0  0  0  0  0  0  0  0  0
   -3.1797   -5.2745    6.4728 C   0  0  0  0  0  0  0  0  0  0  0  0
   -3.1211   -4.4151    5.3687 C   0  0  0  0  0  0  0  0  0  0  0  0
   -1.8762   -4.3483    4.5934 C   0  0  0  0  0  0  0  0  0  0  0  0
   -1.5574   -5.2509    3.5889 N   0  0  0  0  0  0  0  0  0  0  0  0
   -2.3948   -6.3582    3.1425 C   0  0  0  0  0  0  0  0  0  0  0  0
   -2.0020   -7.6792    3.7809 C   0  0  0  0  0  0  0  0  0  0  0  0
   -0.8462   -3.4087    4.6587 C   0  0  0  0  0  0  0  0  0  0  0  0
   -0.7510   -2.1909    5.5555 C   0  0  0  0  0  0  0  0  0  0  0  0
    0.0640   -2.3241    6.8777 C   0  0  0  0  0  0  0  0  0  0  0  0
   -0.4426   -3.5071    7.7226 C   0  0  0  0  0  0  0  0  0  0  0  0
   -0.1748   -1.0334    7.6947 C   0  0  0  0  0  0  0  0  0  0  0  0
    1.5854   -2.5173    6.6463 C   0  0  0  0  0  0  0  0  0  0  0  0
    2.2515   -1.3278    6.1599 O   0  0  0  0  0  0  0  0  0  0  0  0
    3.0638   -0.6908    7.0657 C   0  0  0  0  0  0  0  0  0  0  0  0
    3.8749    0.4375    6.4076 C   0  0  1  0  0  0  0  0  0  0  0  0
    3.0434    1.2134    5.4679 N   0  0  0  0  0  0  0  0  0  0  0  0
    3.8069    2.2406    4.8387 N   0  0  0  0  0  0  0  0  0  0  0  0
    3.9780    2.3988    3.4552 C   0  0  0  0  0  0  0  0  0  0  0  0
    3.6764    1.1840    2.5582 C   0  0  1  0  0  0  0  0  0  0  0  0
    3.1901    1.6021    1.2512 N   0  0  0  0  0  0  0  0  0  0  0  0
    1.8386    1.6764    0.9792 C   0  0  0  0  0  0  0  0  0  0  0  0
    1.4800    2.1664   -0.4497 C   0  0  2  0  0  0  0  0  0  0  0  0
    1.1755    3.6880   -0.4762 C   0  0  0  0  0  0  0  0  0  0  0  0
    0.9184    4.1685   -1.9108 C   0  0  0  0  0  0  0  0  0  0  0  0
    2.3205    4.5212    0.1143 C   0  0  0  0  0  0  0  0  0  0  0  0
    0.3895    1.2909   -0.9716 N   0  0  0  0  0  0  0  0  0  0  0  0
    0.7962    0.0749   -1.5310 C   0  0  0  0  0  0  0  0  0  0  0  0
   -0.2369   -1.0443   -1.8279 C   0  0  0  0  0  0  0  0  0  0  0  0
   -0.7384   -1.6765   -0.5233 C   0  0  0  0  0  0  0  0  0  0  0  0
   -1.6164   -2.8919   -0.7891 C   0  0  0  0  0  0  0  0  0  0  0  0
   -0.9457   -3.8418   -1.6582 N   0  0  0  0  0  0  0  0  0  0  0  0
   -1.0767   -5.1994   -1.3962 C   0  0  0  0  0  0  0  0  0  0  0  0
   -0.2625   -6.1214   -2.1583 C   0  0  0  0  0  0  0  0  0  0  0  0
    0.4594   -6.8890   -2.7379 C   0  0  0  0  0  0  0  0  0  0  0  0
    1.3754   -7.8373   -3.4167 C   0  0  0  0  0  0  0  0  0  0  0  0
    0.9432   -9.2536   -3.2609 N   0  0  0  0  0  0  0  0  0  0  0  0
    0.9132   -9.7240   -1.8724 C   0  0  0  0  0  0  0  0  0  0  0  0
   -0.3388   -9.5617   -3.9033 C   0  0  0  0  0  0  0  0  0  0  0  0
    1.4587   -7.4492   -4.9111 C   0  0  0  0  0  0  0  0  0  0  0  0
    2.7971   -7.6423   -2.8373 C   0  0  0  0  0  0  0  0  0  0  0  0
   -1.7993   -5.6647   -0.5220 O   0  0  0  0  0  0  0  0  0  0  0  0
   -0.4836   -3.3095   -2.9338 C   0  0  0  0  0  0  0  0  0  0  0  0
    0.4223   -2.1095   -2.7226 C   0  0  0  0  0  0  0  0  0  0  0  0
    1.9962   -0.1340   -1.7525 O   0  0  0  0  0  0  0  0  0  0  0  0
   -0.9851    1.5730   -0.5591 C   0  0  0  0  0  0  0  0  0  0  0  0
    0.9903    1.3705    1.8184 O   0  0  0  0  0  0  0  0  0  0  0  0
    4.9472    0.3145    2.4529 C   0  0  0  0  0  0  0  0  0  0  0  0
    4.7572   -1.0583    1.7774 C   0  0  1  0  0  0  0  0  0  0  0  0
    3.5020   -1.7687    2.3014 C   0  0  0  0  0  0  0  0  0  0  0  0
    3.2245   -3.0542    1.6302 N   0  0  0  0  0  0  0  0  0  0  0  0
    3.2727   -2.9000    0.1513 C   0  0  0  0  0  0  0  0  0  0  0  0
    4.5515   -2.1620   -0.2877 C   0  0  0  0  0  0  0  0  0  0  0  0
    4.6929   -0.8831    0.3552 O   0  0  0  0  0  0  0  0  0  0  0  0
    4.4578    3.4260    2.9627 O   0  0  0  0  0  0  0  0  0  0  0  0
    4.2860    3.2667    5.7678 C   0  0  0  0  0  0  0  0  0  0  0  0
    5.1432    2.6035    6.8463 C   0  0  0  0  0  0  0  0  0  0  0  0
    4.4233    1.4039    7.4749 C   0  0  0  0  0  0  0  0  0  0  0  0
    3.1920   -1.0238    8.2382 O   0  0  0  0  0  0  0  0  0  0  0  0
    0.0821   -3.7520    3.6253 C   0  0  0  0  0  0  0  0  0  0  0  0
   -0.3548   -4.9108    3.0006 C   0  0  0  0  0  0  0  0  0  0  0  0
    0.3843   -5.5050    1.9653 C   0  0  0  0  0  0  0  0  0  0  0  0
    1.5726   -4.8815    1.5412 C   0  0  0  0  0  0  0  0  0  0  0  0
    2.0296   -3.6814    2.0947 C   0  0  0  0  0  0  0  0  0  0  0  0
    1.2670   -3.1509    3.1555 C   0  0  0  0  0  0  0  0  0  0  0  0
   -1.3183   -0.5690   -2.5233 F   0  0  0  0  0  0  0  0  0  0  0  0
   -4.3767   -0.9035    4.9512 H   0  0  0  0  0  0  0  0  0  0  0  0
   -4.8932   -0.7598    3.2568 H   0  0  0  0  0  0  0  0  0  0  0  0
   -5.9805   -1.4765    4.4338 H   0  0  0  0  0  0  0  0  0  0  0  0
   -3.3245   -2.5982    3.4227 H   0  0  0  0  0  0  0  0  0  0  0  0
   -4.3564   -2.3866    1.2205 H   0  0  0  0  0  0  0  0  0  0  0  0
   -3.6673   -4.0142    1.5428 H   0  0  0  0  0  0  0  0  0  0  0  0
   -5.2910   -3.8515    0.8469 H   0  0  0  0  0  0  0  0  0  0  0  0
   -6.3424   -4.5977    7.4337 H   0  0  0  0  0  0  0  0  0  0  0  0
   -4.3968   -6.0167    8.0952 H   0  0  0  0  0  0  0  0  0  0  0  0
   -2.3178   -5.8789    6.7430 H   0  0  0  0  0  0  0  0  0  0  0  0
   -3.4401   -6.1210    3.3625 H   0  0  0  0  0  0  0  0  0  0  0  0
   -2.3139   -6.4212    2.0524 H   0  0  0  0  0  0  0  0  0  0  0  0
   -2.0841   -7.6362    4.8709 H   0  0  0  0  0  0  0  0  0  0  0  0
   -2.6570   -8.4798    3.4228 H   0  0  0  0  0  0  0  0  0  0  0  0
   -0.9697   -7.9484    3.5351 H   0  0  0  0  0  0  0  0  0  0  0  0
   -0.3411   -1.3593    4.9664 H   0  0  0  0  0  0  0  0  0  0  0  0
   -1.7755   -1.8809    5.8031 H   0  0  0  0  0  0  0  0  0  0  0  0
    0.0628   -3.5395    8.6953 H   0  0  0  0  0  0  0  0  0  0  0  0
   -1.5151   -3.4178    7.9220 H   0  0  0  0  0  0  0  0  0  0  0  0
   -0.2528   -4.4660    7.2298 H   0  0  0  0  0  0  0  0  0  0  0  0
    0.3838   -1.0522    8.6370 H   0  0  0  0  0  0  0  0  0  0  0  0
    0.1294   -0.1407    7.1370 H   0  0  0  0  0  0  0  0  0  0  0  0
   -1.2358   -0.9159    7.9445 H   0  0  0  0  0  0  0  0  0  0  0  0
    2.0616   -2.8778    7.5664 H   0  0  0  0  0  0  0  0  0  0  0  0
    1.7694   -3.3088    5.9152 H   0  0  0  0  0  0  0  0  0  0  0  0
    4.7043   -0.0407    5.8711 H   0  0  0  0  0  0  0  0  0  0  0  0
    2.5263    0.6060    4.8348 H   0  0  0  0  0  0  0  0  0  0  0  0
    2.8747    0.6232    3.0259 H   0  0  0  0  0  0  0  0  0  0  0  0
    3.8608    1.9844    0.5945 H   0  0  0  0  0  0  0  0  0  0  0  0
    2.3667    2.0056   -1.0765 H   0  0  0  0  0  0  0  0  0  0  0  0
    0.2867    3.9003    0.1305 H   0  0  0  0  0  0  0  0  0  0  0  0
    0.6921    5.2396   -1.9245 H   0  0  0  0  0  0  0  0  0  0  0  0
    1.7958    4.0016   -2.5454 H   0  0  0  0  0  0  0  0  0  0  0  0
    0.0705    3.6510   -2.3688 H   0  0  0  0  0  0  0  0  0  0  0  0
    2.4371    4.3303    1.1853 H   0  0  0  0  0  0  0  0  0  0  0  0
    3.2718    4.3017   -0.3827 H   0  0  0  0  0  0  0  0  0  0  0  0
    2.1209    5.5921    0.0019 H   0  0  0  0  0  0  0  0  0  0  0  0
    0.1161   -1.9734    0.0955 H   0  0  0  0  0  0  0  0  0  0  0  0
   -1.3210   -0.9668    0.0692 H   0  0  0  0  0  0  0  0  0  0  0  0
   -1.8695   -3.3615    0.1654 H   0  0  0  0  0  0  0  0  0  0  0  0
   -2.5557   -2.6001   -1.2731 H   0  0  0  0  0  0  0  0  0  0  0  0
    0.2047   -9.1661   -1.2521 H   0  0  0  0  0  0  0  0  0  0  0  0
    0.6270  -10.7811   -1.8337 H   0  0  0  0  0  0  0  0  0  0  0  0
    1.9017   -9.6791   -1.4065 H   0  0  0  0  0  0  0  0  0  0  0  0
   -1.1656   -8.9676   -3.5002 H   0  0  0  0  0  0  0  0  0  0  0  0
   -0.2905   -9.4176   -4.9861 H   0  0  0  0  0  0  0  0  0  0  0  0
   -0.5909  -10.6207   -3.7666 H   0  0  0  0  0  0  0  0  0  0  0  0
    1.9084   -6.4554   -5.0381 H   0  0  0  0  0  0  0  0  0  0  0  0
    2.0746   -8.1612   -5.4737 H   0  0  0  0  0  0  0  0  0  0  0  0
    0.4717   -7.3972   -5.3859 H   0  0  0  0  0  0  0  0  0  0  0  0
    2.8226   -7.7370   -1.7458 H   0  0  0  0  0  0  0  0  0  0  0  0
    3.5017   -8.3671   -3.2611 H   0  0  0  0  0  0  0  0  0  0  0  0
    3.1832   -6.6396   -3.0626 H   0  0  0  0  0  0  0  0  0  0  0  0
    0.0418   -4.0669   -3.5210 H   0  0  0  0  0  0  0  0  0  0  0  0
   -1.3740   -3.0260   -3.5079 H   0  0  0  0  0  0  0  0  0  0  0  0
    0.6677   -1.6739   -3.6987 H   0  0  0  0  0  0  0  0  0  0  0  0
    1.3611   -2.4607   -2.2790 H   0  0  0  0  0  0  0  0  0  0  0  0
   -1.0999    1.3624    0.5069 H   0  0  0  0  0  0  0  0  0  0  0  0
   -1.2350    2.6184   -0.7500 H   0  0  0  0  0  0  0  0  0  0  0  0
   -1.7120    0.9767   -1.1079 H   0  0  0  0  0  0  0  0  0  0  0  0
    5.7219    0.8742    1.9128 H   0  0  0  0  0  0  0  0  0  0  0  0
    5.3349    0.1383    3.4639 H   0  0  0  0  0  0  0  0  0  0  0  0
    5.6452   -1.6669    1.9925 H   0  0  0  0  0  0  0  0  0  0  0  0
    3.6376   -1.9197    3.3788 H   0  0  0  0  0  0  0  0  0  0  0  0
    2.6343   -1.1300    2.1103 H   0  0  0  0  0  0  0  0  0  0  0  0
    3.2499   -3.8678   -0.3564 H   0  0  0  0  0  0  0  0  0  0  0  0
    2.4068   -2.3147   -0.1686 H   0  0  0  0  0  0  0  0  0  0  0  0
    5.4423   -2.7660   -0.0744 H   0  0  0  0  0  0  0  0  0  0  0  0
    4.5219   -1.9854   -1.3676 H   0  0  0  0  0  0  0  0  0  0  0  0
    4.8704    4.0299    5.2446 H   0  0  0  0  0  0  0  0  0  0  0  0
    3.4100    3.7566    6.2080 H   0  0  0  0  0  0  0  0  0  0  0  0
    6.0803    2.2529    6.3950 H   0  0  0  0  0  0  0  0  0  0  0  0
    5.4085    3.3325    7.6185 H   0  0  0  0  0  0  0  0  0  0  0  0
    3.6028    1.7694    8.1074 H   0  0  0  0  0  0  0  0  0  0  0  0
    5.1168    0.8755    8.1404 H   0  0  0  0  0  0  0  0  0  0  0  0
    0.0502   -6.4204    1.4855 H   0  0  0  0  0  0  0  0  0  0  0  0
    2.1407   -5.3752    0.7580 H   0  0  0  0  0  0  0  0  0  0  0  0
    1.5441   -2.2327    3.6533 H   0  0  0  0  0  0  0  0  0  0  0  0
  1  2  1  0
  2  3  1  0
  2  5  1  0
  3  4  1  0
  5  6  2  0
  5 10  1  0
  6  7  1  0
  7  8  2  0
  8  9  1  0
  9 10  2  0
 10 11  1  0
 11 12  1  0
 11 15  2  0
 12 13  1  0
 12 68  1  0
 13 14  1  0
 15 16  1  0
 15 67  1  0
 16 17  1  0
 17 18  1  0
 17 19  1  0
 17 20  1  0
 20 21  1  0
 21 22  1  0
 22 23  1  0
 22 66  2  0
 23 24  1  0
 23 65  1  0
 24 25  1  0
 25 26  1  0
 25 63  1  0
 26 27  1  0
 26 62  2  0
 27 28  1  0
 27 55  1  0
 28 29  1  0
 29 30  1  0
 29 54  2  0
 30 31  1  0
 30 34  1  0
 31 32  1  0
 31 33  1  0
 34 35  1  0
 34 53  1  0
 35 36  1  0
 35 52  2  0
 36 37  1  0
 36 51  1  0
 36 73  1  0
 37 38  1  0
 38 39  1  0
 39 40  1  0
 39 50  1  0
 40 41  1  0
 40 49  2  0
 42 43  1  0
 43 44  1  0
 43 47  1  0
 43 48  1  0
 44 45  1  0
 44 46  1  0
 50 51  1  0
 55 56  1  0
 56 57  1  0
 56 61  1  0
 57 58  1  0
 58 59  1  0
 58 71  1  0
 59 60  1  0
 60 61  1  0
 63 64  1  0
 64 65  1  0
 67 68  2  0
 67 72  1  0
 68 69  1  0
 69 70  2  0
 70 71  1  0
 71 72  2  0
 41 42  3  0
  1 74  1  0
  1 75  1  0
  1 76  1  0
  2 77  1  6
  4 78  1  0
  4 79  1  0
  4 80  1  0
  7 81  1  0
  8 82  1  0
  9 83  1  0
 13 84  1  0
 13 85  1  0
 14 86  1  0
 14 87  1  0
 14 88  1  0
 16 89  1  0
 16 90  1  0
 18 91  1  0
 18 92  1  0
 18 93  1  0
 19 94  1  0
 19 95  1  0
 19 96  1  0
 20 97  1  0
 20 98  1  0
 23 99  1  6
 24100  1  0
 27101  1  1
 28102  1  0
 30103  1  6
 31104  1  0
 32105  1  0
 32106  1  0
 32107  1  0
 33108  1  0
 33109  1  0
 33110  1  0
 37111  1  0
 37112  1  0
 38113  1  0
 38114  1  0
 45115  1  0
 45116  1  0
 45117  1  0
 46118  1  0
 46119  1  0
 46120  1  0
 47121  1  0
 47122  1  0
 47123  1  0
 48124  1  0
 48125  1  0
 48126  1  0
 50127  1  0
 50128  1  0
 51129  1  0
 51130  1  0
 53131  1  0
 53132  1  0
 53133  1  0
 55134  1  0
 55135  1  0
 56136  1  6
 57137  1  0
 57138  1  0
 59139  1  0
 59140  1  0
 60141  1  0
 60142  1  0
 63143  1  0
 63144  1  0
 64145  1  0
 64146  1  0
 65147  1  0
 65148  1  0
 69149  1  0
 70150  1  0
 72151  1  0
M  END
$$$$
