 xtb: 6.7.1 (edcfbbe)
          08232520593D

151157  0     0  0            999 V2000
   -5.7759   -4.8280   -2.1183 C   0  0  0  0  0  0  0  0  0  0  0  0
   -4.9662   -3.7870   -2.8857 C   0  0  0  0  0  0  0  0  0  0  0  0
   -5.9127   -2.9556   -3.5349 O   0  0  0  0  0  0  0  0  0  0  0  0
   -5.3615   -1.9484   -4.3475 C   0  0  0  0  0  0  0  0  0  0  0  0
   -4.0334   -4.4547   -3.8784 C   0  0  0  0  0  0  0  0  0  0  0  0
   -4.6077   -5.3143   -4.7059 N   0  0  0  0  0  0  0  0  0  0  0  0
   -3.8967   -5.8791   -5.6613 C   0  0  0  0  0  0  0  0  0  0  0  0
   -2.5527   -5.6048   -5.8617 C   0  0  0  0  0  0  0  0  0  0  0  0
   -1.9374   -4.7261   -4.9899 C   0  0  0  0  0  0  0  0  0  0  0  0
   -2.6690   -4.1359   -3.9589 C   0  0  0  0  0  0  0  0  0  0  0  0
   -1.9899   -3.2334   -3.0199 C   0  0  0  0  0  0  0  0  0  0  0  0
   -1.4680   -2.0325   -3.4432 N   0  0  0  0  0  0  0  0  0  0  0  0
   -1.5817   -1.4556   -4.7566 C   0  0  0  0  0  0  0  0  0  0  0  0
   -0.2474   -1.4581   -5.5017 C   0  0  0  0  0  0  0  0  0  0  0  0
   -1.7142   -3.4252   -1.6816 C   0  0  0  0  0  0  0  0  0  0  0  0
   -2.0830   -4.5797   -0.8038 C   0  0  0  0  0  0  0  0  0  0  0  0
   -1.0721   -5.7501   -0.7661 C   0  0  0  0  0  0  0  0  0  0  0  0
   -1.6530   -6.8671    0.1043 C   0  0  0  0  0  0  0  0  0  0  0  0
   -0.8341   -6.2865   -2.1788 C   0  0  0  0  0  0  0  0  0  0  0  0
    0.2956   -5.2999   -0.2150 C   0  0  0  0  0  0  0  0  0  0  0  0
    0.3994   -5.2863    1.2159 O   0  0  0  0  0  0  0  0  0  0  0  0
    1.0019   -6.3322    1.7778 C   0  0  0  0  0  0  0  0  0  0  0  0
    1.2545   -6.1152    3.2652 C   0  0  0  0  0  0  0  0  0  0  0  0
    0.0744   -5.7045    4.0132 N   0  0  0  0  0  0  0  0  0  0  0  0
    0.4627   -5.2992    5.2966 N   0  0  0  0  0  0  0  0  0  0  0  0
    0.9034   -4.0670    5.6426 C   0  0  0  0  0  0  0  0  0  0  0  0
    0.7093   -2.9601    4.5890 C   0  0  0  0  0  0  0  0  0  0  0  0
   -0.4503   -2.1737    4.9580 N   0  0  0  0  0  0  0  0  0  0  0  0
   -1.6830   -2.5152    4.5605 C   0  0  0  0  0  0  0  0  0  0  0  0
   -2.7988   -1.5972    5.0668 C   0  0  0  0  0  0  0  0  0  0  0  0
   -3.4743   -2.1720    6.3222 C   0  0  0  0  0  0  0  0  0  0  0  0
   -4.4896   -1.1687    6.8680 C   0  0  0  0  0  0  0  0  0  0  0  0
   -2.4277   -2.4795    7.3929 C   0  0  0  0  0  0  0  0  0  0  0  0
   -3.7188   -1.3412    3.9561 N   0  0  0  0  0  0  0  0  0  0  0  0
   -3.3682   -0.3145    3.1617 C   0  0  0  0  0  0  0  0  0  0  0  0
   -4.1798    0.0063    1.8935 C   0  0  0  0  0  0  0  0  0  0  0  0
   -3.8283   -0.9601    0.7571 C   0  0  0  0  0  0  0  0  0  0  0  0
   -4.5723   -0.5605   -0.5184 C   0  0  0  0  0  0  0  0  0  0  0  0
   -4.2397    0.7975   -0.8695 N   0  0  0  0  0  0  0  0  0  0  0  0
   -3.5478    1.0569   -1.9975 C   0  0  0  0  0  0  0  0  0  0  0  0
   -3.0589    2.4050   -2.1413 C   0  0  0  0  0  0  0  0  0  0  0  0
   -2.5179    3.4432   -2.4200 C   0  0  0  0  0  0  0  0  0  0  0  0
   -1.8285    4.7086   -2.6594 C   0  0  0  0  0  0  0  0  0  0  0  0
   -2.7727    5.6282   -3.3019 N   0  0  0  0  0  0  0  0  0  0  0  0
   -2.2766    6.9677   -3.5271 C   0  0  0  0  0  0  0  0  0  0  0  0
   -3.3823    5.1047   -4.5072 C   0  0  0  0  0  0  0  0  0  0  0  0
   -1.4154    5.2518   -1.2807 C   0  0  0  0  0  0  0  0  0  0  0  0
   -0.5684    4.3914   -3.4923 C   0  0  0  0  0  0  0  0  0  0  0  0
   -3.3279    0.2174   -2.8577 O   0  0  0  0  0  0  0  0  0  0  0  0
   -4.5801    1.7691    0.1378 C   0  0  0  0  0  0  0  0  0  0  0  0
   -3.8794    1.4442    1.4563 C   0  0  0  0  0  0  0  0  0  0  0  0
   -2.3981    0.3881    3.4156 O   0  0  0  0  0  0  0  0  0  0  0  0
   -4.7043   -2.3601    3.6658 C   0  0  0  0  0  0  0  0  0  0  0  0
   -1.8957   -3.4766    3.8359 O   0  0  0  0  0  0  0  0  0  0  0  0
    1.9553   -2.0837    4.4848 C   0  0  0  0  0  0  0  0  0  0  0  0
    1.8419   -0.9687    3.4320 C   0  0  0  0  0  0  0  0  0  0  0  0
    0.9462   -1.3678    2.2572 C   0  0  0  0  0  0  0  0  0  0  0  0
    0.8643   -0.3036    1.2770 N   0  0  0  0  0  0  0  0  0  0  0  0
    0.3917    0.9166    1.9215 C   0  0  0  0  0  0  0  0  0  0  0  0
    1.2919    1.2526    3.1107 C   0  0  0  0  0  0  0  0  0  0  0  0
    1.3378    0.2004    4.0475 O   0  0  0  0  0  0  0  0  0  0  0  0
    1.3415   -3.8192    6.7507 O   0  0  0  0  0  0  0  0  0  0  0  0
    0.8508   -6.4577    6.0811 C   0  0  0  0  0  0  0  0  0  0  0  0
    2.0643   -7.1131    5.4145 C   0  0  0  0  0  0  0  0  0  0  0  0
    1.7685   -7.3920    3.9404 C   0  0  0  0  0  0  0  0  0  0  0  0
    1.3993   -7.2974    1.1803 O   0  0  0  0  0  0  0  0  0  0  0  0
   -1.0029   -2.2659   -1.2576 C   0  0  0  0  0  0  0  0  0  0  0  0
   -0.8847   -1.4121   -2.3754 C   0  0  0  0  0  0  0  0  0  0  0  0
   -0.2673   -0.1708   -2.2499 C   0  0  0  0  0  0  0  0  0  0  0  0
    0.2630    0.1752   -1.0283 C   0  0  0  0  0  0  0  0  0  0  0  0
    0.1909   -0.6779    0.0908 C   0  0  0  0  0  0  0  0  0  0  0  0
   -0.4729   -1.8876   -0.0238 C   0  0  0  0  0  0  0  0  0  0  0  0
   -5.5471   -0.0727    2.1648 F   0  0  0  0  0  0  0  0  0  0  0  0
   -6.4747   -4.3257   -1.4559 H   0  0  0  0  0  0  0  0  0  0  0  0
   -6.3300   -5.4274   -2.8339 H   0  0  0  0  0  0  0  0  0  0  0  0
   -5.1243   -5.4737   -1.5362 H   0  0  0  0  0  0  0  0  0  0  0  0
   -4.3599   -3.1762   -2.1958 H   0  0  0  0  0  0  0  0  0  0  0  0
   -4.6294   -1.3389   -3.8071 H   0  0  0  0  0  0  0  0  0  0  0  0
   -4.8851   -2.3679   -5.2422 H   0  0  0  0  0  0  0  0  0  0  0  0
   -6.1967   -1.3217   -4.6553 H   0  0  0  0  0  0  0  0  0  0  0  0
   -4.4333   -6.5742   -6.2936 H   0  0  0  0  0  0  0  0  0  0  0  0
   -2.0037   -6.0687   -6.6662 H   0  0  0  0  0  0  0  0  0  0  0  0
   -0.8854   -4.5009   -5.0937 H   0  0  0  0  0  0  0  0  0  0  0  0
   -2.3246   -2.0232   -5.3214 H   0  0  0  0  0  0  0  0  0  0  0  0
   -1.9479   -0.4315   -4.6425 H   0  0  0  0  0  0  0  0  0  0  0  0
    0.5093   -0.9264   -4.9309 H   0  0  0  0  0  0  0  0  0  0  0  0
    0.1034   -2.4740   -5.6684 H   0  0  0  0  0  0  0  0  0  0  0  0
   -0.3644   -0.9716   -6.4665 H   0  0  0  0  0  0  0  0  0  0  0  0
   -2.2103   -4.2111    0.2168 H   0  0  0  0  0  0  0  0  0  0  0  0
   -3.0375   -4.9903   -1.1367 H   0  0  0  0  0  0  0  0  0  0  0  0
   -1.8896   -6.4995    1.1010 H   0  0  0  0  0  0  0  0  0  0  0  0
   -2.5649   -7.2528   -0.3459 H   0  0  0  0  0  0  0  0  0  0  0  0
   -0.9426   -7.6853    0.1965 H   0  0  0  0  0  0  0  0  0  0  0  0
   -0.2229   -7.1855   -2.1440 H   0  0  0  0  0  0  0  0  0  0  0  0
   -1.7808   -6.5320   -2.6537 H   0  0  0  0  0  0  0  0  0  0  0  0
   -0.3241   -5.5435   -2.7861 H   0  0  0  0  0  0  0  0  0  0  0  0
    1.0708   -5.9760   -0.5892 H   0  0  0  0  0  0  0  0  0  0  0  0
    0.5127   -4.2799   -0.5380 H   0  0  0  0  0  0  0  0  0  0  0  0
    2.0477   -5.3399    3.3084 H   0  0  0  0  0  0  0  0  0  0  0  0
   -0.5303   -5.0215    3.5617 H   0  0  0  0  0  0  0  0  0  0  0  0
    0.5027   -3.4142    3.6176 H   0  0  0  0  0  0  0  0  0  0  0  0
   -0.2796   -1.3383    5.4955 H   0  0  0  0  0  0  0  0  0  0  0  0
   -2.3605   -0.6267    5.3230 H   0  0  0  0  0  0  0  0  0  0  0  0
   -3.9758   -3.1085    6.0640 H   0  0  0  0  0  0  0  0  0  0  0  0
   -5.0377   -1.6036    7.7003 H   0  0  0  0  0  0  0  0  0  0  0  0
   -3.9773   -0.2774    7.2240 H   0  0  0  0  0  0  0  0  0  0  0  0
   -5.2032   -0.8640    6.1070 H   0  0  0  0  0  0  0  0  0  0  0  0
   -2.9228   -2.8287    8.2959 H   0  0  0  0  0  0  0  0  0  0  0  0
   -1.7372   -3.2535    7.0677 H   0  0  0  0  0  0  0  0  0  0  0  0
   -1.8564   -1.5885    7.6441 H   0  0  0  0  0  0  0  0  0  0  0  0
   -2.7507   -0.9067    0.5850 H   0  0  0  0  0  0  0  0  0  0  0  0
   -4.0805   -1.9873    1.0175 H   0  0  0  0  0  0  0  0  0  0  0  0
   -4.2733   -1.2052   -1.3453 H   0  0  0  0  0  0  0  0  0  0  0  0
   -5.6538   -0.6465   -0.3658 H   0  0  0  0  0  0  0  0  0  0  0  0
   -1.8943    7.3924   -2.6031 H   0  0  0  0  0  0  0  0  0  0  0  0
   -1.4926    7.0204   -4.2985 H   0  0  0  0  0  0  0  0  0  0  0  0
   -3.1137    7.5821   -3.8593 H   0  0  0  0  0  0  0  0  0  0  0  0
   -3.7137    4.0823   -4.3379 H   0  0  0  0  0  0  0  0  0  0  0  0
   -4.2529    5.7172   -4.7437 H   0  0  0  0  0  0  0  0  0  0  0  0
   -2.7080    5.1210   -5.3772 H   0  0  0  0  0  0  0  0  0  0  0  0
   -2.2878    5.6426   -0.7634 H   0  0  0  0  0  0  0  0  0  0  0  0
   -0.9877    4.4473   -0.6864 H   0  0  0  0  0  0  0  0  0  0  0  0
   -0.6707    6.0374   -1.3761 H   0  0  0  0  0  0  0  0  0  0  0  0
    0.0581    3.6871   -2.9507 H   0  0  0  0  0  0  0  0  0  0  0  0
   -0.8417    3.9447   -4.4454 H   0  0  0  0  0  0  0  0  0  0  0  0
    0.0031    5.2987   -3.6736 H   0  0  0  0  0  0  0  0  0  0  0  0
   -4.2934    2.7642   -0.2070 H   0  0  0  0  0  0  0  0  0  0  0  0
   -5.6664    1.7443    0.2899 H   0  0  0  0  0  0  0  0  0  0  0  0
   -4.2125    2.1312    2.2351 H   0  0  0  0  0  0  0  0  0  0  0  0
   -2.8005    1.5483    1.3455 H   0  0  0  0  0  0  0  0  0  0  0  0
   -5.4014   -2.4536    4.4984 H   0  0  0  0  0  0  0  0  0  0  0  0
   -5.2802   -2.1136    2.7835 H   0  0  0  0  0  0  0  0  0  0  0  0
   -4.1956   -3.3141    3.5130 H   0  0  0  0  0  0  0  0  0  0  0  0
    2.1527   -1.6252    5.4553 H   0  0  0  0  0  0  0  0  0  0  0  0
    2.8028   -2.7250    4.2373 H   0  0  0  0  0  0  0  0  0  0  0  0
    2.8497   -0.7429    3.0403 H   0  0  0  0  0  0  0  0  0  0  0  0
    1.3653   -2.2530    1.7728 H   0  0  0  0  0  0  0  0  0  0  0  0
   -0.0579   -1.5845    2.6475 H   0  0  0  0  0  0  0  0  0  0  0  0
    0.4098    1.7391    1.2063 H   0  0  0  0  0  0  0  0  0  0  0  0
   -0.6325    0.7863    2.3010 H   0  0  0  0  0  0  0  0  0  0  0  0
    2.3114    1.4704    2.7552 H   0  0  0  0  0  0  0  0  0  0  0  0
    0.8977    2.1180    3.6450 H   0  0  0  0  0  0  0  0  0  0  0  0
    1.0845   -6.1226    7.0913 H   0  0  0  0  0  0  0  0  0  0  0  0
    0.0035   -7.1457    6.0969 H   0  0  0  0  0  0  0  0  0  0  0  0
    2.9177   -6.4357    5.4973 H   0  0  0  0  0  0  0  0  0  0  0  0
    2.3136   -8.0399    5.9305 H   0  0  0  0  0  0  0  0  0  0  0  0
    0.9930   -8.1536    3.8536 H   0  0  0  0  0  0  0  0  0  0  0  0
    2.6591   -7.7510    3.4258 H   0  0  0  0  0  0  0  0  0  0  0  0
   -0.2074    0.5128   -3.0825 H   0  0  0  0  0  0  0  0  0  0  0  0
    0.7704    1.1223   -0.9223 H   0  0  0  0  0  0  0  0  0  0  0  0
   -0.5989   -2.5565    0.8113 H   0  0  0  0  0  0  0  0  0  0  0  0
  1  2  1  0  0  0  0
  2  3  1  0  0  0  0
  3  4  1  0  0  0  0
  2  5  1  0  0  0  0
  5  6  4  0  0  0  0
  6  7  4  0  0  0  0
  7  8  4  0  0  0  0
  8  9  4  0  0  0  0
  5 10  4  0  0  0  0
  9 10  4  0  0  0  0
 10 11  1  0  0  0  0
 11 12  1  0  0  0  0
 12 13  1  0  0  0  0
 13 14  1  0  0  0  0
 11 15  4  0  0  0  0
 15 16  1  0  0  0  0
 16 17  1  0  0  0  0
 17 18  1  0  0  0  0
 17 19  1  0  0  0  0
 17 20  1  0  0  0  0
 20 21  1  0  0  0  0
 21 22  1  0  0  0  0
 22 23  1  0  0  0  0
 23 24  1  0  0  0  0
 24 25  1  0  0  0  0
 25 26  4  0  0  0  0
 26 27  1  0  0  0  0
 27 28  1  0  0  0  0
 28 29  4  0  0  0  0
 29 30  1  0  0  0  0
 30 31  1  0  0  0  0
 31 32  1  0  0  0  0
 31 33  1  0  0  0  0
 30 34  1  0  0  0  0
 34 35  4  0  0  0  0
 35 36  1  0  0  0  0
 36 37  1  0  0  0  0
 37 38  1  0  0  0  0
 38 39  1  0  0  0  0
 39 40  4  0  0  0  0
 40 41  1  0  0  0  0
 41 42  3  0  0  0  0
 42 43  1  0  0  0  0
 43 44  1  0  0  0  0
 44 45  1  0  0  0  0
 44 46  1  0  0  0  0
 43 47  1  0  0  0  0
 43 48  1  0  0  0  0
 40 49  2  0  0  0  0
 39 50  1  0  0  0  0
 36 51  1  0  0  0  0
 50 51  1  0  0  0  0
 35 52  2  0  0  0  0
 34 53  1  0  0  0  0
 29 54  2  0  0  0  0
 27 55  1  0  0  0  0
 55 56  1  0  0  0  0
 56 57  1  0  0  0  0
 57 58  1  0  0  0  0
 58 59  1  0  0  0  0
 59 60  1  0  0  0  0
 56 61  1  0  0  0  0
 60 61  1  0  0  0  0
 26 62  2  0  0  0  0
 25 63  1  0  0  0  0
 63 64  1  0  0  0  0
 23 65  1  0  0  0  0
 64 65  1  0  0  0  0
 22 66  2  0  0  0  0
 15 67  4  0  0  0  0
 12 68  1  0  0  0  0
 67 68  4  0  0  0  0
 68 69  4  0  0  0  0
 69 70  2  0  0  0  0
 58 71  1  0  0  0  0
 70 71  4  0  0  0  0
 67 72  4  0  0  0  0
 71 72  4  0  0  0  0
 36 73  1  0  0  0  0
  1 74  1  0  0  0  0
  1 75  1  0  0  0  0
  1 76  1  0  0  0  0
  2 77  1  0  0  0  0
  4 78  1  0  0  0  0
  4 79  1  0  0  0  0
  4 80  1  0  0  0  0
  7 81  1  0  0  0  0
  8 82  1  0  0  0  0
  9 83  1  0  0  0  0
 13 84  1  0  0  0  0
 13 85  1  0  0  0  0
 14 86  1  0  0  0  0
 14 87  1  0  0  0  0
 14 88  1  0  0  0  0
 16 89  1  0  0  0  0
 16 90  1  0  0  0  0
 18 91  1  0  0  0  0
 18 92  1  0  0  0  0
 18 93  1  0  0  0  0
 19 94  1  0  0  0  0
 19 95  1  0  0  0  0
 19 96  1  0  0  0  0
 20 97  1  0  0  0  0
 20 98  1  0  0  0  0
 23 99  1  0  0  0  0
 24100  1  0  0  0  0
 27101  1  0  0  0  0
 28102  1  0  0  0  0
 30103  1  0  0  0  0
 31104  1  0  0  0  0
 32105  1  0  0  0  0
 32106  1  0  0  0  0
 32107  1  0  0  0  0
 33108  1  0  0  0  0
 33109  1  0  0  0  0
 33110  1  0  0  0  0
 37111  1  0  0  0  0
 37112  1  0  0  0  0
 38113  1  0  0  0  0
 38114  1  0  0  0  0
 45115  1  0  0  0  0
 45116  1  0  0  0  0
 45117  1  0  0  0  0
 46118  1  0  0  0  0
 46119  1  0  0  0  0
 46120  1  0  0  0  0
 47121  1  0  0  0  0
 47122  1  0  0  0  0
 47123  1  0  0  0  0
 48124  1  0  0  0  0
 48125  1  0  0  0  0
 48126  1  0  0  0  0
 50127  1  0  0  0  0
 50128  1  0  0  0  0
 51129  1  0  0  0  0
 51130  1  0  0  0  0
 53131  1  0  0  0  0
 53132  1  0  0  0  0
 53133  1  0  0  0  0
 55134  1  0  0  0  0
 55135  1  0  0  0  0
 56136  1  0  0  0  0
 57137  1  0  0  0  0
 57138  1  0  0  0  0
 59139  1  0  0  0  0
 59140  1  0  0  0  0
 60141  1  0  0  0  0
 60142  1  0  0  0  0
 63143  1  0  0  0  0
 63144  1  0  0  0  0
 64145  1  0  0  0  0
 64146  1  0  0  0  0
 65147  1  0  0  0  0
 65148  1  0  0  0  0
 69149  1  0  0  0  0
 70150  1  0  0  0  0
 72151  1  0  0  0  0
M  END
$$$$
