 xtb: 6.7.1 (edcfbbe)
          08232514353D

151157  0     0  0            999 V2000
    6.0180    0.1409   -3.0278 C   0  0  0  0  0  0  0  0  0  0  0  0
    5.7473    0.6899   -1.6204 C   0  0  0  0  0  0  0  0  0  0  0  0
    4.4362    0.3882   -1.1738 O   0  0  0  0  0  0  0  0  0  0  0  0
    4.3395   -0.8038   -0.4423 C   0  0  0  0  0  0  0  0  0  0  0  0
    6.0002    2.1817   -1.5990 C   0  0  0  0  0  0  0  0  0  0  0  0
    7.1918    2.4972   -1.1068 N   0  0  0  0  0  0  0  0  0  0  0  0
    7.5916    3.7542   -1.1056 C   0  0  0  0  0  0  0  0  0  0  0  0
    6.8213    4.7870   -1.6142 C   0  0  0  0  0  0  0  0  0  0  0  0
    5.5732    4.4684   -2.1152 C   0  0  0  0  0  0  0  0  0  0  0  0
    5.1225    3.1477   -2.1046 C   0  0  0  0  0  0  0  0  0  0  0  0
    3.7852    2.8655   -2.6482 C   0  0  0  0  0  0  0  0  0  0  0  0
    3.5920    2.8842   -4.0122 N   0  0  0  0  0  0  0  0  0  0  0  0
    4.6001    3.0726   -5.0229 C   0  0  0  0  0  0  0  0  0  0  0  0
    4.5297    4.4654   -5.6485 C   0  0  0  0  0  0  0  0  0  0  0  0
    2.5874    2.6667   -1.9995 C   0  0  0  0  0  0  0  0  0  0  0  0
    2.3192    2.5295   -0.5337 C   0  0  0  0  0  0  0  0  0  0  0  0
    1.9690    3.8260    0.2316 C   0  0  0  0  0  0  0  0  0  0  0  0
    1.7990    3.4832    1.7136 C   0  0  0  0  0  0  0  0  0  0  0  0
    3.0944    4.8500    0.0772 C   0  0  0  0  0  0  0  0  0  0  0  0
    0.6849    4.4849   -0.3129 C   0  0  0  0  0  0  0  0  0  0  0  0
   -0.5414    3.9652    0.2217 O   0  0  0  0  0  0  0  0  0  0  0  0
   -1.1166    4.6734    1.1905 C   0  0  0  0  0  0  0  0  0  0  0  0
   -2.5071    4.1473    1.5311 C   0  0  0  0  0  0  0  0  0  0  0  0
   -2.5329    2.7250    1.8425 N   0  0  0  0  0  0  0  0  0  0  0  0
   -3.8619    2.2884    1.9119 N   0  0  0  0  0  0  0  0  0  0  0  0
   -4.6207    1.8758    0.8707 C   0  0  0  0  0  0  0  0  0  0  0  0
   -3.8847    1.6856   -0.4691 C   0  0  0  0  0  0  0  0  0  0  0  0
   -3.6448    0.2723   -0.6837 N   0  0  0  0  0  0  0  0  0  0  0  0
   -2.5425   -0.3260   -0.2137 C   0  0  0  0  0  0  0  0  0  0  0  0
   -2.4334   -1.8185   -0.5354 C   0  0  0  0  0  0  0  0  0  0  0  0
   -2.8425   -2.6800    0.6710 C   0  0  0  0  0  0  0  0  0  0  0  0
   -2.8323   -4.1568    0.2803 C   0  0  0  0  0  0  0  0  0  0  0  0
   -4.2360   -2.2784    1.1526 C   0  0  0  0  0  0  0  0  0  0  0  0
   -1.0808   -2.0932   -1.0211 N   0  0  0  0  0  0  0  0  0  0  0  0
   -0.9262   -2.0721   -2.3561 C   0  0  0  0  0  0  0  0  0  0  0  0
    0.4679   -2.2598   -2.9782 C   0  0  0  0  0  0  0  0  0  0  0  0
    1.2678   -0.9560   -2.9087 C   0  0  0  0  0  0  0  0  0  0  0  0
    2.6164   -1.1283   -3.6034 C   0  0  0  0  0  0  0  0  0  0  0  0
    2.4130   -1.5266   -4.9743 N   0  0  0  0  0  0  0  0  0  0  0  0
    2.8684   -0.7587   -5.9886 C   0  0  0  0  0  0  0  0  0  0  0  0
    2.4407   -1.1624   -7.3056 C   0  0  0  0  0  0  0  0  0  0  0  0
    2.0944   -1.2944   -8.4517 C   0  0  0  0  0  0  0  0  0  0  0  0
    1.7189   -1.6339   -9.8235 C   0  0  0  0  0  0  0  0  0  0  0  0
    2.4724   -2.8049  -10.3033 N   0  0  0  0  0  0  0  0  0  0  0  0
    2.2331   -4.0116   -9.5351 C   0  0  0  0  0  0  0  0  0  0  0  0
    3.8995   -2.5687  -10.4283 C   0  0  0  0  0  0  0  0  0  0  0  0
    1.9982   -0.4205  -10.7243 C   0  0  0  0  0  0  0  0  0  0  0  0
    0.2101   -1.9300   -9.8681 C   0  0  0  0  0  0  0  0  0  0  0  0
    3.5880    0.2133   -5.8226 O   0  0  0  0  0  0  0  0  0  0  0  0
    1.6826   -2.7592   -5.1276 C   0  0  0  0  0  0  0  0  0  0  0  0
    0.3181   -2.6801   -4.4438 C   0  0  0  0  0  0  0  0  0  0  0  0
   -1.8708   -1.8778   -3.1105 O   0  0  0  0  0  0  0  0  0  0  0  0
   -0.0330   -2.1722   -0.0263 C   0  0  0  0  0  0  0  0  0  0  0  0
   -1.6861    0.2809    0.4139 O   0  0  0  0  0  0  0  0  0  0  0  0
   -4.7004    2.2793   -1.6157 C   0  0  0  0  0  0  0  0  0  0  0  0
   -4.0263    2.1376   -2.9899 C   0  0  0  0  0  0  0  0  0  0  0  0
   -2.4999    2.1807   -2.8941 C   0  0  0  0  0  0  0  0  0  0  0  0
   -1.8848    2.0410   -4.1987 N   0  0  0  0  0  0  0  0  0  0  0  0
   -2.3529    0.8104   -4.8279 C   0  0  0  0  0  0  0  0  0  0  0  0
   -3.8805    0.7973   -4.8681 C   0  0  0  0  0  0  0  0  0  0  0  0
   -4.4386    0.9195   -3.5794 O   0  0  0  0  0  0  0  0  0  0  0  0
   -5.7991    1.5965    0.9934 O   0  0  0  0  0  0  0  0  0  0  0  0
   -4.4910    2.8087    3.1121 C   0  0  0  0  0  0  0  0  0  0  0  0
   -4.5068    4.3383    3.0266 C   0  0  0  0  0  0  0  0  0  0  0  0
   -3.0983    4.8653    2.7496 C   0  0  0  0  0  0  0  0  0  0  0  0
   -0.6540    5.6691    1.6817 O   0  0  0  0  0  0  0  0  0  0  0  0
    1.6070    2.5306   -3.0263 C   0  0  0  0  0  0  0  0  0  0  0  0
    2.2688    2.6626   -4.2662 C   0  0  0  0  0  0  0  0  0  0  0  0
    1.5642    2.5484   -5.4606 C   0  0  0  0  0  0  0  0  0  0  0  0
    0.2077    2.3251   -5.3986 C   0  0  0  0  0  0  0  0  0  0  0  0
   -0.4761    2.2019   -4.1737 C   0  0  0  0  0  0  0  0  0  0  0  0
    0.2334    2.2918   -2.9881 C   0  0  0  0  0  0  0  0  0  0  0  0
    1.1634   -3.2766   -2.3193 F   0  0  0  0  0  0  0  0  0  0  0  0
    5.9369   -0.9436   -3.0283 H   0  0  0  0  0  0  0  0  0  0  0  0
    5.3044    0.5430   -3.7415 H   0  0  0  0  0  0  0  0  0  0  0  0
    7.0242    0.4140   -3.3348 H   0  0  0  0  0  0  0  0  0  0  0  0
    6.4811    0.2517   -0.9274 H   0  0  0  0  0  0  0  0  0  0  0  0
    4.9953   -0.7872    0.4375 H   0  0  0  0  0  0  0  0  0  0  0  0
    3.3049   -0.8786   -0.1120 H   0  0  0  0  0  0  0  0  0  0  0  0
    4.5906   -1.6833   -1.0465 H   0  0  0  0  0  0  0  0  0  0  0  0
    8.5727    3.9310   -0.6848 H   0  0  0  0  0  0  0  0  0  0  0  0
    7.1823    5.8036   -1.6156 H   0  0  0  0  0  0  0  0  0  0  0  0
    4.9346    5.2419   -2.5173 H   0  0  0  0  0  0  0  0  0  0  0  0
    5.5821    2.9221   -4.5671 H   0  0  0  0  0  0  0  0  0  0  0  0
    4.4526    2.3090   -5.7912 H   0  0  0  0  0  0  0  0  0  0  0  0
    4.7417    5.2335   -4.9083 H   0  0  0  0  0  0  0  0  0  0  0  0
    5.2603    4.5468   -6.4489 H   0  0  0  0  0  0  0  0  0  0  0  0
    3.5396    4.6471   -6.0587 H   0  0  0  0  0  0  0  0  0  0  0  0
    1.4890    1.8310   -0.4052 H   0  0  0  0  0  0  0  0  0  0  0  0
    3.2012    2.0932   -0.0637 H   0  0  0  0  0  0  0  0  0  0  0  0
    1.5042    4.3653    2.2778 H   0  0  0  0  0  0  0  0  0  0  0  0
    1.0395    2.7155    1.8489 H   0  0  0  0  0  0  0  0  0  0  0  0
    2.7381    3.1128    2.1181 H   0  0  0  0  0  0  0  0  0  0  0  0
    2.9235    5.7043    0.7288 H   0  0  0  0  0  0  0  0  0  0  0  0
    4.0501    4.4022    0.3373 H   0  0  0  0  0  0  0  0  0  0  0  0
    3.1434    5.2016   -0.9497 H   0  0  0  0  0  0  0  0  0  0  0  0
    0.7082    5.5550   -0.0830 H   0  0  0  0  0  0  0  0  0  0  0  0
    0.6209    4.3441   -1.3935 H   0  0  0  0  0  0  0  0  0  0  0  0
   -3.1276    4.3772    0.6401 H   0  0  0  0  0  0  0  0  0  0  0  0
   -1.9643    2.1240    1.2490 H   0  0  0  0  0  0  0  0  0  0  0  0
   -2.9120    2.1806   -0.4213 H   0  0  0  0  0  0  0  0  0  0  0  0
   -4.3045   -0.2154   -1.2700 H   0  0  0  0  0  0  0  0  0  0  0  0
   -3.1038   -2.0469   -1.3706 H   0  0  0  0  0  0  0  0  0  0  0  0
   -2.1376   -2.5086    1.4889 H   0  0  0  0  0  0  0  0  0  0  0  0
   -3.0444   -4.7765    1.1481 H   0  0  0  0  0  0  0  0  0  0  0  0
   -3.5936   -4.3489   -0.4728 H   0  0  0  0  0  0  0  0  0  0  0  0
   -1.8710   -4.4557   -0.1293 H   0  0  0  0  0  0  0  0  0  0  0  0
   -4.5403   -2.9247    1.9723 H   0  0  0  0  0  0  0  0  0  0  0  0
   -4.2540   -1.2513    1.5085 H   0  0  0  0  0  0  0  0  0  0  0  0
   -4.9656   -2.3797    0.3521 H   0  0  0  0  0  0  0  0  0  0  0  0
    0.6928   -0.1787   -3.4150 H   0  0  0  0  0  0  0  0  0  0  0  0
    1.4352   -0.6335   -1.8825 H   0  0  0  0  0  0  0  0  0  0  0  0
    3.1607   -0.1848   -3.5875 H   0  0  0  0  0  0  0  0  0  0  0  0
    3.2026   -1.8959   -3.0857 H   0  0  0  0  0  0  0  0  0  0  0  0
    2.5635   -3.9289   -8.4881 H   0  0  0  0  0  0  0  0  0  0  0  0
    1.1777   -4.2691   -9.5538 H   0  0  0  0  0  0  0  0  0  0  0  0
    2.7824   -4.8273  -10.0035 H   0  0  0  0  0  0  0  0  0  0  0  0
    4.3685   -2.2613   -9.4824 H   0  0  0  0  0  0  0  0  0  0  0  0
    4.3703   -3.4925  -10.7613 H   0  0  0  0  0  0  0  0  0  0  0  0
    4.0894   -1.8098  -11.1827 H   0  0  0  0  0  0  0  0  0  0  0  0
    1.2884    0.3715  -10.4987 H   0  0  0  0  0  0  0  0  0  0  0  0
    2.9973   -0.0261  -10.5619 H   0  0  0  0  0  0  0  0  0  0  0  0
    1.8867   -0.7099  -11.7659 H   0  0  0  0  0  0  0  0  0  0  0  0
   -0.0905   -2.6158   -9.0805 H   0  0  0  0  0  0  0  0  0  0  0  0
   -0.3483   -1.0071   -9.7333 H   0  0  0  0  0  0  0  0  0  0  0  0
   -0.0415   -2.3589  -10.8344 H   0  0  0  0  0  0  0  0  0  0  0  0
    1.5549   -2.9751   -6.1900 H   0  0  0  0  0  0  0  0  0  0  0  0
    2.2654   -3.5699   -4.6695 H   0  0  0  0  0  0  0  0  0  0  0  0
   -0.1748   -3.6522   -4.4899 H   0  0  0  0  0  0  0  0  0  0  0  0
   -0.3170   -1.9495   -4.9436 H   0  0  0  0  0  0  0  0  0  0  0  0
   -0.1437   -1.3327    0.6611 H   0  0  0  0  0  0  0  0  0  0  0  0
   -0.1040   -3.1095    0.5283 H   0  0  0  0  0  0  0  0  0  0  0  0
    0.9490   -2.1266   -0.4793 H   0  0  0  0  0  0  0  0  0  0  0  0
   -5.6732    1.7860   -1.6545 H   0  0  0  0  0  0  0  0  0  0  0  0
   -4.8672    3.3367   -1.4046 H   0  0  0  0  0  0  0  0  0  0  0  0
   -4.3596    2.9651   -3.6407 H   0  0  0  0  0  0  0  0  0  0  0  0
   -2.1929    3.1386   -2.4674 H   0  0  0  0  0  0  0  0  0  0  0  0
   -2.1737    1.3543   -2.2471 H   0  0  0  0  0  0  0  0  0  0  0  0
   -1.9607    0.7476   -5.8432 H   0  0  0  0  0  0  0  0  0  0  0  0
   -2.0247   -0.0731   -4.2591 H   0  0  0  0  0  0  0  0  0  0  0  0
   -4.2431    1.6202   -5.5036 H   0  0  0  0  0  0  0  0  0  0  0  0
   -4.2352   -0.1555   -5.2633 H   0  0  0  0  0  0  0  0  0  0  0  0
   -5.5006    2.4028    3.1706 H   0  0  0  0  0  0  0  0  0  0  0  0
   -3.9002    2.4784    3.9685 H   0  0  0  0  0  0  0  0  0  0  0  0
   -5.1774    4.6368    2.2171 H   0  0  0  0  0  0  0  0  0  0  0  0
   -4.8892    4.7567    3.9572 H   0  0  0  0  0  0  0  0  0  0  0  0
   -2.4509    4.6656    3.6040 H   0  0  0  0  0  0  0  0  0  0  0  0
   -3.1125    5.9408    2.5760 H   0  0  0  0  0  0  0  0  0  0  0  0
    2.0616    2.6224   -6.4150 H   0  0  0  0  0  0  0  0  0  0  0  0
   -0.3590    2.2556   -6.3148 H   0  0  0  0  0  0  0  0  0  0  0  0
   -0.2340    2.1694   -2.0256 H   0  0  0  0  0  0  0  0  0  0  0  0
  1  2  1  0  0  0  0
  2  3  1  0  0  0  0
  3  4  1  0  0  0  0
  2  5  1  0  0  0  0
  5  6  4  0  0  0  0
  6  7  4  0  0  0  0
  7  8  4  0  0  0  0
  8  9  4  0  0  0  0
  5 10  4  0  0  0  0
  9 10  4  0  0  0  0
 10 11  1  0  0  0  0
 11 12  1  0  0  0  0
 12 13  1  0  0  0  0
 13 14  1  0  0  0  0
 11 15  2  0  0  0  0
 15 16  1  0  0  0  0
 16 17  1  0  0  0  0
 17 18  1  0  0  0  0
 17 19  1  0  0  0  0
 17 20  1  0  0  0  0
 20 21  1  0  0  0  0
 21 22  1  0  0  0  0
 22 23  1  0  0  0  0
 23 24  1  0  0  0  0
 24 25  1  0  0  0  0
 25 26  4  0  0  0  0
 26 27  1  0  0  0  0
 27 28  1  0  0  0  0
 28 29  4  0  0  0  0
 29 30  1  0  0  0  0
 30 31  1  0  0  0  0
 31 32  1  0  0  0  0
 31 33  1  0  0  0  0
 30 34  1  0  0  0  0
 34 35  4  0  0  0  0
 35 36  1  0  0  0  0
 36 37  1  0  0  0  0
 37 38  1  0  0  0  0
 38 39  1  0  0  0  0
 39 40  4  0  0  0  0
 40 41  1  0  0  0  0
 41 42  3  0  0  0  0
 42 43  1  0  0  0  0
 43 44  1  0  0  0  0
 44 45  1  0  0  0  0
 44 46  1  0  0  0  0
 43 47  1  0  0  0  0
 43 48  1  0  0  0  0
 40 49  2  0  0  0  0
 39 50  1  0  0  0  0
 36 51  1  0  0  0  0
 50 51  1  0  0  0  0
 35 52  2  0  0  0  0
 34 53  1  0  0  0  0
 29 54  2  0  0  0  0
 27 55  1  0  0  0  0
 55 56  1  0  0  0  0
 56 57  1  0  0  0  0
 57 58  1  0  0  0  0
 58 59  1  0  0  0  0
 59 60  1  0  0  0  0
 56 61  1  0  0  0  0
 60 61  1  0  0  0  0
 26 62  2  0  0  0  0
 25 63  1  0  0  0  0
 63 64  1  0  0  0  0
 23 65  1  0  0  0  0
 64 65  1  0  0  0  0
 22 66  2  0  0  0  0
 15 67  4  0  0  0  0
 12 68  1  0  0  0  0
 67 68  4  0  0  0  0
 68 69  4  0  0  0  0
 69 70  2  0  0  0  0
 58 71  1  0  0  0  0
 70 71  4  0  0  0  0
 67 72  4  0  0  0  0
 71 72  4  0  0  0  0
 36 73  1  0  0  0  0
  1 74  1  0  0  0  0
  1 75  1  0  0  0  0
  1 76  1  0  0  0  0
  2 77  1  0  0  0  0
  4 78  1  0  0  0  0
  4 79  1  0  0  0  0
  4 80  1  0  0  0  0
  7 81  1  0  0  0  0
  8 82  1  0  0  0  0
  9 83  1  0  0  0  0
 13 84  1  0  0  0  0
 13 85  1  0  0  0  0
 14 86  1  0  0  0  0
 14 87  1  0  0  0  0
 14 88  1  0  0  0  0
 16 89  1  0  0  0  0
 16 90  1  0  0  0  0
 18 91  1  0  0  0  0
 18 92  1  0  0  0  0
 18 93  1  0  0  0  0
 19 94  1  0  0  0  0
 19 95  1  0  0  0  0
 19 96  1  0  0  0  0
 20 97  1  0  0  0  0
 20 98  1  0  0  0  0
 23 99  1  0  0  0  0
 24100  1  0  0  0  0
 27101  1  0  0  0  0
 28102  1  0  0  0  0
 30103  1  0  0  0  0
 31104  1  0  0  0  0
 32105  1  0  0  0  0
 32106  1  0  0  0  0
 32107  1  0  0  0  0
 33108  1  0  0  0  0
 33109  1  0  0  0  0
 33110  1  0  0  0  0
 37111  1  0  0  0  0
 37112  1  0  0  0  0
 38113  1  0  0  0  0
 38114  1  0  0  0  0
 45115  1  0  0  0  0
 45116  1  0  0  0  0
 45117  1  0  0  0  0
 46118  1  0  0  0  0
 46119  1  0  0  0  0
 46120  1  0  0  0  0
 47121  1  0  0  0  0
 47122  1  0  0  0  0
 47123  1  0  0  0  0
 48124  1  0  0  0  0
 48125  1  0  0  0  0
 48126  1  0  0  0  0
 50127  1  0  0  0  0
 50128  1  0  0  0  0
 51129  1  0  0  0  0
 51130  1  0  0  0  0
 53131  1  0  0  0  0
 53132  1  0  0  0  0
 53133  1  0  0  0  0
 55134  1  0  0  0  0
 55135  1  0  0  0  0
 56136  1  0  0  0  0
 57137  1  0  0  0  0
 57138  1  0  0  0  0
 59139  1  0  0  0  0
 59140  1  0  0  0  0
 60141  1  0  0  0  0
 60142  1  0  0  0  0
 63143  1  0  0  0  0
 63144  1  0  0  0  0
 64145  1  0  0  0  0
 64146  1  0  0  0  0
 65147  1  0  0  0  0
 65148  1  0  0  0  0
 69149  1  0  0  0  0
 70150  1  0  0  0  0
 72151  1  0  0  0  0
M  END
$$$$
