 energy: -221.292005229406 gnorm: 0.000264177762 xtb: 6.7.1 (edcfbbe)
          08232514523D

151157  0     0  0            999 V2000
   -3.4616    1.5614   10.9836 C   0  0  0  0  0  0  0  0  0  0  0  0
   -2.8629    1.5765    9.5754 C   0  0  0  0  0  0  0  0  0  0  0  0
   -1.4451    1.6656    9.5838 O   0  0  0  0  0  0  0  0  0  0  0  0
   -0.7890    0.5016   10.0150 C   0  0  0  0  0  0  0  0  0  0  0  0
   -3.3657    2.7866    8.8138 C   0  0  0  0  0  0  0  0  0  0  0  0
   -3.3773    3.9265    9.4856 N   0  0  0  0  0  0  0  0  0  0  0  0
   -3.8212    5.0214    8.9007 C   0  0  0  0  0  0  0  0  0  0  0  0
   -4.3126    5.0405    7.6045 C   0  0  0  0  0  0  0  0  0  0  0  0
   -4.3075    3.8540    6.8951 C   0  0  0  0  0  0  0  0  0  0  0  0
   -3.8084    2.6941    7.4879 C   0  0  0  0  0  0  0  0  0  0  0  0
   -3.7836    1.4372    6.7319 C   0  0  0  0  0  0  0  0  0  0  0  0
   -4.9590    0.8000    6.3910 N   0  0  0  0  0  0  0  0  0  0  0  0
   -6.2847    1.1606    6.8229 C   0  0  0  0  0  0  0  0  0  0  0  0
   -6.6356    0.5026    8.1565 C   0  0  0  0  0  0  0  0  0  0  0  0
   -2.7027    0.7372    6.2450 C   0  0  0  0  0  0  0  0  0  0  0  0
   -1.2466    1.0468    6.3896 C   0  0  0  0  0  0  0  0  0  0  0  0
   -0.6409    1.9780    5.3156 C   0  0  0  0  0  0  0  0  0  0  0  0
   -1.1340    3.4111    5.5233 C   0  0  0  0  0  0  0  0  0  0  0  0
   -0.9969    1.5235    3.9019 C   0  0  0  0  0  0  0  0  0  0  0  0
    0.8876    1.9909    5.4906 C   0  0  0  0  0  0  0  0  0  0  0  0
    1.4965    0.7411    5.1407 O   0  0  0  0  0  0  0  0  0  0  0  0
    2.4722    0.7678    4.2375 C   0  0  0  0  0  0  0  0  0  0  0  0
    3.0522   -0.6250    4.0004 C   0  0  0  0  0  0  0  0  0  0  0  0
    2.8333   -0.9583    2.5953 N   0  0  0  0  0  0  0  0  0  0  0  0
    3.3510   -2.2146    2.2652 N   0  0  0  0  0  0  0  0  0  0  0  0
    2.6757   -3.3643    2.0830 C   0  0  0  0  0  0  0  0  0  0  0  0
    1.1539   -3.3177    2.3426 C   0  0  0  0  0  0  0  0  0  0  0  0
    0.4166   -2.9607    1.1449 N   0  0  0  0  0  0  0  0  0  0  0  0
   -0.0869   -1.7331    0.9601 C   0  0  0  0  0  0  0  0  0  0  0  0
   -0.9452   -1.5504   -0.2908 C   0  0  0  0  0  0  0  0  0  0  0  0
   -0.1003   -1.1875   -1.5300 C   0  0  0  0  0  0  0  0  0  0  0  0
   -1.0122   -1.0819   -2.7515 C   0  0  0  0  0  0  0  0  0  0  0  0
    0.9849   -2.2317   -1.7834 C   0  0  0  0  0  0  0  0  0  0  0  0
   -1.9808   -0.5565   -0.0181 N   0  0  0  0  0  0  0  0  0  0  0  0
   -3.2394   -1.0116    0.0991 C   0  0  0  0  0  0  0  0  0  0  0  0
   -4.3776   -0.0435    0.4664 C   0  0  0  0  0  0  0  0  0  0  0  0
   -4.4036    0.1702    1.9845 C   0  0  0  0  0  0  0  0  0  0  0  0
   -5.5900    1.0515    2.3777 C   0  0  0  0  0  0  0  0  0  0  0  0
   -6.8190    0.4610    1.9060 N   0  0  0  0  0  0  0  0  0  0  0  0
   -7.7840    0.0902    2.7779 C   0  0  0  0  0  0  0  0  0  0  0  0
   -8.9000   -0.6167    2.2008 C   0  0  0  0  0  0  0  0  0  0  0  0
   -9.8517   -1.2917    1.9010 C   0  0  0  0  0  0  0  0  0  0  0  0
  -11.0635   -1.9698    1.4435 C   0  0  0  0  0  0  0  0  0  0  0  0
  -12.1413   -0.9976    1.1944 N   0  0  0  0  0  0  0  0  0  0  0  0
  -12.5904   -0.3065    2.3902 C   0  0  0  0  0  0  0  0  0  0  0  0
  -11.8344   -0.0399    0.1487 C   0  0  0  0  0  0  0  0  0  0  0  0
  -11.4988   -2.9765    2.5202 C   0  0  0  0  0  0  0  0  0  0  0  0
  -10.7513   -2.7476    0.1543 C   0  0  0  0  0  0  0  0  0  0  0  0
   -7.7363    0.3314    3.9739 O   0  0  0  0  0  0  0  0  0  0  0  0
   -6.8719    0.2592    0.4800 C   0  0  0  0  0  0  0  0  0  0  0  0
   -5.7181   -0.6273    0.0110 C   0  0  0  0  0  0  0  0  0  0  0  0
   -3.5166   -2.1983   -0.0200 O   0  0  0  0  0  0  0  0  0  0  0  0
   -1.5691    0.8272    0.0968 C   0  0  0  0  0  0  0  0  0  0  0  0
    0.1401   -0.8188    1.7436 O   0  0  0  0  0  0  0  0  0  0  0  0
    0.7016   -4.6881    2.8528 C   0  0  0  0  0  0  0  0  0  0  0  0
   -0.8139   -4.8212    3.0414 C   0  0  0  0  0  0  0  0  0  0  0  0
   -1.4160   -3.5794    3.6998 C   0  0  0  0  0  0  0  0  0  0  0  0
   -2.8595   -3.6587    3.8308 N   0  0  0  0  0  0  0  0  0  0  0  0
   -3.4788   -4.0350    2.5631 C   0  0  0  0  0  0  0  0  0  0  0  0
   -2.8007   -5.2647    1.9648 C   0  0  0  0  0  0  0  0  0  0  0  0
   -1.4178   -5.0656    1.7858 O   0  0  0  0  0  0  0  0  0  0  0  0
    3.2261   -4.3894    1.7182 O   0  0  0  0  0  0  0  0  0  0  0  0
    4.7998   -2.2033    2.3321 C   0  0  0  0  0  0  0  0  0  0  0  0
    5.2059   -1.9048    3.7764 C   0  0  0  0  0  0  0  0  0  0  0  0
    4.5696   -0.5919    4.2304 C   0  0  0  0  0  0  0  0  0  0  0  0
    2.8767    1.7548    3.6852 O   0  0  0  0  0  0  0  0  0  0  0  0
   -3.2402   -0.4169    5.6020 C   0  0  0  0  0  0  0  0  0  0  0  0
   -4.6432   -0.3575    5.7340 C   0  0  0  0  0  0  0  0  0  0  0  0
   -5.4390   -1.3913    5.2529 C   0  0  0  0  0  0  0  0  0  0  0  0
   -4.8228   -2.4527    4.6299 C   0  0  0  0  0  0  0  0  0  0  0  0
   -3.4244   -2.5236    4.4586 C   0  0  0  0  0  0  0  0  0  0  0  0
   -2.6400   -1.4933    4.9527 C   0  0  0  0  0  0  0  0  0  0  0  0
   -4.2207    1.1831   -0.1771 F   0  0  0  0  0  0  0  0  0  0  0  0
   -3.1158    2.4378   11.5233 H   0  0  0  0  0  0  0  0  0  0  0  0
   -4.5462    1.5932   10.9196 H   0  0  0  0  0  0  0  0  0  0  0  0
   -3.1717    0.6612   11.5194 H   0  0  0  0  0  0  0  0  0  0  0  0
   -3.1573    0.6603    9.0348 H   0  0  0  0  0  0  0  0  0  0  0  0
   -0.9267    0.3227   11.0864 H   0  0  0  0  0  0  0  0  0  0  0  0
   -1.1374   -0.3776    9.4579 H   0  0  0  0  0  0  0  0  0  0  0  0
    0.2701    0.6584    9.8162 H   0  0  0  0  0  0  0  0  0  0  0  0
   -3.7924    5.9181    9.5059 H   0  0  0  0  0  0  0  0  0  0  0  0
   -4.6859    5.9524    7.1649 H   0  0  0  0  0  0  0  0  0  0  0  0
   -4.6776    3.8190    5.8788 H   0  0  0  0  0  0  0  0  0  0  0  0
   -6.3413    2.2473    6.9257 H   0  0  0  0  0  0  0  0  0  0  0  0
   -6.9887    0.8468    6.0485 H   0  0  0  0  0  0  0  0  0  0  0  0
   -5.9555    0.8421    8.9358 H   0  0  0  0  0  0  0  0  0  0  0  0
   -7.6519    0.7595    8.4424 H   0  0  0  0  0  0  0  0  0  0  0  0
   -6.5573   -0.5787    8.0739 H   0  0  0  0  0  0  0  0  0  0  0  0
   -1.0745    1.5118    7.3617 H   0  0  0  0  0  0  0  0  0  0  0  0
   -0.6971    0.1033    6.3590 H   0  0  0  0  0  0  0  0  0  0  0  0
   -0.9238    3.7504    6.5352 H   0  0  0  0  0  0  0  0  0  0  0  0
   -0.6515    4.0893    4.8224 H   0  0  0  0  0  0  0  0  0  0  0  0
   -2.2065    3.4588    5.3629 H   0  0  0  0  0  0  0  0  0  0  0  0
   -2.0776    1.5264    3.7827 H   0  0  0  0  0  0  0  0  0  0  0  0
   -0.5592    2.1977    3.1682 H   0  0  0  0  0  0  0  0  0  0  0  0
   -0.6292    0.5218    3.6999 H   0  0  0  0  0  0  0  0  0  0  0  0
    1.3333    2.7681    4.8620 H   0  0  0  0  0  0  0  0  0  0  0  0
    1.1401    2.1854    6.5377 H   0  0  0  0  0  0  0  0  0  0  0  0
    2.5710   -1.3379    4.6922 H   0  0  0  0  0  0  0  0  0  0  0  0
    1.8588   -0.8465    2.3153 H   0  0  0  0  0  0  0  0  0  0  0  0
    0.9544   -2.5495    3.0968 H   0  0  0  0  0  0  0  0  0  0  0  0
    0.1178   -3.7338    0.5691 H   0  0  0  0  0  0  0  0  0  0  0  0
   -1.4745   -2.4892   -0.4896 H   0  0  0  0  0  0  0  0  0  0  0  0
    0.3851   -0.2222   -1.3585 H   0  0  0  0  0  0  0  0  0  0  0  0
   -1.4827   -2.0419   -2.9529 H   0  0  0  0  0  0  0  0  0  0  0  0
   -1.7970   -0.3456   -2.6001 H   0  0  0  0  0  0  0  0  0  0  0  0
   -0.4347   -0.7905   -3.6254 H   0  0  0  0  0  0  0  0  0  0  0  0
    1.7049   -2.2682   -0.9700 H   0  0  0  0  0  0  0  0  0  0  0  0
    0.5473   -3.2196   -1.9106 H   0  0  0  0  0  0  0  0  0  0  0  0
    1.5223   -1.9814   -2.6951 H   0  0  0  0  0  0  0  0  0  0  0  0
   -4.4962   -0.8056    2.4650 H   0  0  0  0  0  0  0  0  0  0  0  0
   -3.4768    0.6273    2.3301 H   0  0  0  0  0  0  0  0  0  0  0  0
   -5.6509    1.1384    3.4640 H   0  0  0  0  0  0  0  0  0  0  0  0
   -5.4727    2.0487    1.9363 H   0  0  0  0  0  0  0  0  0  0  0  0
  -13.0272   -1.0140    3.0900 H   0  0  0  0  0  0  0  0  0  0  0  0
  -11.7858    0.2477    2.8941 H   0  0  0  0  0  0  0  0  0  0  0  0
  -13.3682    0.3999    2.1038 H   0  0  0  0  0  0  0  0  0  0  0  0
  -12.6994    0.6087    0.0168 H   0  0  0  0  0  0  0  0  0  0  0  0
  -10.9622    0.5892    0.3824 H   0  0  0  0  0  0  0  0  0  0  0  0
  -11.6593   -0.5532   -0.7931 H   0  0  0  0  0  0  0  0  0  0  0  0
  -11.5110   -2.5232    3.5073 H   0  0  0  0  0  0  0  0  0  0  0  0
  -12.4898   -3.3534    2.2815 H   0  0  0  0  0  0  0  0  0  0  0  0
  -10.7999   -3.8090    2.5457 H   0  0  0  0  0  0  0  0  0  0  0  0
  -10.1178   -3.6004    0.3851 H   0  0  0  0  0  0  0  0  0  0  0  0
  -11.6804   -3.1043   -0.2820 H   0  0  0  0  0  0  0  0  0  0  0  0
  -10.2267   -2.1323   -0.5717 H   0  0  0  0  0  0  0  0  0  0  0  0
   -7.8272   -0.1973    0.2153 H   0  0  0  0  0  0  0  0  0  0  0  0
   -6.7965    1.2363   -0.0150 H   0  0  0  0  0  0  0  0  0  0  0  0
   -5.7270   -0.6995   -1.0774 H   0  0  0  0  0  0  0  0  0  0  0  0
   -5.8101   -1.6316    0.4232 H   0  0  0  0  0  0  0  0  0  0  0  0
   -0.5345    0.8554    0.4266 H   0  0  0  0  0  0  0  0  0  0  0  0
   -1.6663    1.3466   -0.8595 H   0  0  0  0  0  0  0  0  0  0  0  0
   -2.1625    1.3537    0.8372 H   0  0  0  0  0  0  0  0  0  0  0  0
    1.0317   -5.4469    2.1411 H   0  0  0  0  0  0  0  0  0  0  0  0
    1.2000   -4.8815    3.8034 H   0  0  0  0  0  0  0  0  0  0  0  0
   -1.0117   -5.6916    3.6917 H   0  0  0  0  0  0  0  0  0  0  0  0
   -0.9839   -3.4877    4.6993 H   0  0  0  0  0  0  0  0  0  0  0  0
   -1.1569   -2.6953    3.1014 H   0  0  0  0  0  0  0  0  0  0  0  0
   -4.5302   -4.2696    2.7247 H   0  0  0  0  0  0  0  0  0  0  0  0
   -3.4094   -3.2195    1.8297 H   0  0  0  0  0  0  0  0  0  0  0  0
   -2.9630   -6.1376    2.6158 H   0  0  0  0  0  0  0  0  0  0  0  0
   -3.2138   -5.4639    0.9750 H   0  0  0  0  0  0  0  0  0  0  0  0
    5.1594   -3.1785    2.0042 H   0  0  0  0  0  0  0  0  0  0  0  0
    5.1688   -1.4208    1.6650 H   0  0  0  0  0  0  0  0  0  0  0  0
    4.8679   -2.7229    4.4171 H   0  0  0  0  0  0  0  0  0  0  0  0
    6.2913   -1.8395    3.8494 H   0  0  0  0  0  0  0  0  0  0  0  0
    4.9699    0.2357    3.6429 H   0  0  0  0  0  0  0  0  0  0  0  0
    4.7810   -0.4073    5.2845 H   0  0  0  0  0  0  0  0  0  0  0  0
   -6.5122   -1.3675    5.3549 H   0  0  0  0  0  0  0  0  0  0  0  0
   -5.4371   -3.2674    4.2795 H   0  0  0  0  0  0  0  0  0  0  0  0
   -1.5684   -1.4835    4.8641 H   0  0  0  0  0  0  0  0  0  0  0  0
  1  2  1  0  0  0  0
  2  3  1  0  0  0  0
  2  5  1  0  0  0  0
  3  4  1  0  0  0  0
  5  6  2  0  0  0  0
  5 10  1  0  0  0  0
  6  7  1  0  0  0  0
  7  8  2  0  0  0  0
  8  9  1  0  0  0  0
  9 10  2  0  0  0  0
 10 11  1  0  0  0  0
 11 12  1  0  0  0  0
 11 15  2  0  0  0  0
 12 13  1  0  0  0  0
 12 68  1  0  0  0  0
 13 14  1  0  0  0  0
 15 16  1  0  0  0  0
 15 67  1  0  0  0  0
 16 17  1  0  0  0  0
 17 18  1  0  0  0  0
 17 19  1  0  0  0  0
 17 20  1  0  0  0  0
 20 21  1  0  0  0  0
 21 22  1  0  0  0  0
 22 23  1  0  0  0  0
 22 66  2  0  0  0  0
 23 24  1  0  0  0  0
 23 65  1  0  0  0  0
 24 25  1  0  0  0  0
 25 26  1  0  0  0  0
 25 63  1  0  0  0  0
 26 27  1  0  0  0  0
 26 62  2  0  0  0  0
 27 28  1  0  0  0  0
 27 55  1  0  0  0  0
 28 29  1  0  0  0  0
 29 30  1  0  0  0  0
 29 54  2  0  0  0  0
 30 31  1  0  0  0  0
 30 34  1  0  0  0  0
 31 32  1  0  0  0  0
 31 33  1  0  0  0  0
 34 35  1  0  0  0  0
 34 53  1  0  0  0  0
 35 36  1  0  0  0  0
 35 52  2  0  0  0  0
 36 37  1  0  0  0  0
 36 51  1  0  0  0  0
 36 73  1  0  0  0  0
 37 38  1  0  0  0  0
 38 39  1  0  0  0  0
 39 40  1  0  0  0  0
 39 50  1  0  0  0  0
 40 41  1  0  0  0  0
 40 49  2  0  0  0  0
 42 43  1  0  0  0  0
 43 44  1  0  0  0  0
 43 47  1  0  0  0  0
 43 48  1  0  0  0  0
 44 45  1  0  0  0  0
 44 46  1  0  0  0  0
 50 51  1  0  0  0  0
 55 56  1  0  0  0  0
 56 57  1  0  0  0  0
 56 61  1  0  0  0  0
 57 58  1  0  0  0  0
 58 59  1  0  0  0  0
 58 71  1  0  0  0  0
 59 60  1  0  0  0  0
 60 61  1  0  0  0  0
 63 64  1  0  0  0  0
 64 65  1  0  0  0  0
 67 68  2  0  0  0  0
 67 72  1  0  0  0  0
 68 69  1  0  0  0  0
 69 70  2  0  0  0  0
 70 71  1  0  0  0  0
 71 72  2  0  0  0  0
 41 42  3  0  0  0  0
  1 74  1  0  0  0  0
  1 75  1  0  0  0  0
  1 76  1  0  0  0  0
  2 77  1  0  0  0  0
  4 78  1  0  0  0  0
  4 79  1  0  0  0  0
  4 80  1  0  0  0  0
  7 81  1  0  0  0  0
  8 82  1  0  0  0  0
  9 83  1  0  0  0  0
 13 84  1  0  0  0  0
 13 85  1  0  0  0  0
 14 86  1  0  0  0  0
 14 87  1  0  0  0  0
 14 88  1  0  0  0  0
 16 89  1  0  0  0  0
 16 90  1  0  0  0  0
 18 91  1  0  0  0  0
 18 92  1  0  0  0  0
 18 93  1  0  0  0  0
 19 94  1  0  0  0  0
 19 95  1  0  0  0  0
 19 96  1  0  0  0  0
 20 97  1  0  0  0  0
 20 98  1  0  0  0  0
 23 99  1  0  0  0  0
 24100  1  0  0  0  0
 27101  1  0  0  0  0
 28102  1  0  0  0  0
 30103  1  0  0  0  0
 31104  1  0  0  0  0
 32105  1  0  0  0  0
 32106  1  0  0  0  0
 32107  1  0  0  0  0
 33108  1  0  0  0  0
 33109  1  0  0  0  0
 33110  1  0  0  0  0
 37111  1  0  0  0  0
 37112  1  0  0  0  0
 38113  1  0  0  0  0
 38114  1  0  0  0  0
 45115  1  0  0  0  0
 45116  1  0  0  0  0
 45117  1  0  0  0  0
 46118  1  0  0  0  0
 46119  1  0  0  0  0
 46120  1  0  0  0  0
 47121  1  0  0  0  0
 47122  1  0  0  0  0
 47123  1  0  0  0  0
 48124  1  0  0  0  0
 48125  1  0  0  0  0
 48126  1  0  0  0  0
 50127  1  0  0  0  0
 50128  1  0  0  0  0
 51129  1  0  0  0  0
 51130  1  0  0  0  0
 53131  1  0  0  0  0
 53132  1  0  0  0  0
 53133  1  0  0  0  0
 55134  1  0  0  0  0
 55135  1  0  0  0  0
 56136  1  0  0  0  0
 57137  1  0  0  0  0
 57138  1  0  0  0  0
 59139  1  0  0  0  0
 59140  1  0  0  0  0
 60141  1  0  0  0  0
 60142  1  0  0  0  0
 63143  1  0  0  0  0
 63144  1  0  0  0  0
 64145  1  0  0  0  0
 64146  1  0  0  0  0
 65147  1  0  0  0  0
 65148  1  0  0  0  0
 69149  1  0  0  0  0
 70150  1  0  0  0  0
 72151  1  0  0  0  0
M  END
$$$$
