 xtb: 6.7.1 (edcfbbe)
          08232519133D

151157  0     0  0            999 V2000
    4.5198    2.3073    3.2151 C   0  0  0  0  0  0  0  0  0  0  0  0
    4.1961    2.8051    1.8010 C   0  0  0  0  0  0  0  0  0  0  0  0
    2.8088    2.7267    1.5147 O   0  0  0  0  0  0  0  0  0  0  0  0
    2.0945    3.8918    1.8284 C   0  0  0  0  0  0  0  0  0  0  0  0
    5.0066    2.0304    0.7848 C   0  0  0  0  0  0  0  0  0  0  0  0
    6.0457    2.7177    0.3261 N   0  0  0  0  0  0  0  0  0  0  0  0
    6.9032    2.1473   -0.4977 C   0  0  0  0  0  0  0  0  0  0  0  0
    6.7836    0.8307   -0.9105 C   0  0  0  0  0  0  0  0  0  0  0  0
    5.6967    0.1127   -0.4494 C   0  0  0  0  0  0  0  0  0  0  0  0
    4.7639    0.7056    0.4037 C   0  0  0  0  0  0  0  0  0  0  0  0
    3.6290   -0.1160    0.8513 C   0  0  0  0  0  0  0  0  0  0  0  0
    3.8490   -1.1304    1.7577 N   0  0  0  0  0  0  0  0  0  0  0  0
    5.0751   -1.4079    2.4584 C   0  0  0  0  0  0  0  0  0  0  0  0
    5.7635   -2.6688    1.9362 C   0  0  0  0  0  0  0  0  0  0  0  0
    2.3242   -0.1451    0.4122 C   0  0  0  0  0  0  0  0  0  0  0  0
    1.6185    0.7719   -0.5371 C   0  0  0  0  0  0  0  0  0  0  0  0
    1.6577    0.3908   -2.0345 C   0  0  0  0  0  0  0  0  0  0  0  0
    0.8917    1.4558   -2.8234 C   0  0  0  0  0  0  0  0  0  0  0  0
    3.1040    0.3441   -2.5298 C   0  0  0  0  0  0  0  0  0  0  0  0
    1.0477   -1.0044   -2.2875 C   0  0  0  0  0  0  0  0  0  0  0  0
   -0.3731   -1.0253   -2.4878 O   0  0  0  0  0  0  0  0  0  0  0  0
   -0.7959   -1.0900   -3.7479 C   0  0  0  0  0  0  0  0  0  0  0  0
   -2.3009   -1.3239   -3.8300 C   0  0  0  0  0  0  0  0  0  0  0  0
   -3.0819   -0.3353   -3.0989 N   0  0  0  0  0  0  0  0  0  0  0  0
   -4.4182   -0.7500   -3.0395 N   0  0  0  0  0  0  0  0  0  0  0  0
   -4.9588   -1.5699   -2.1096 C   0  0  0  0  0  0  0  0  0  0  0  0
   -4.0646   -1.9106   -0.9019 C   0  0  0  0  0  0  0  0  0  0  0  0
   -4.4787   -1.1061    0.2301 N   0  0  0  0  0  0  0  0  0  0  0  0
   -3.9864    0.1232    0.4295 C   0  0  0  0  0  0  0  0  0  0  0  0
   -4.5438    0.8527    1.6547 C   0  0  0  0  0  0  0  0  0  0  0  0
   -5.6380    1.8553    1.2564 C   0  0  0  0  0  0  0  0  0  0  0  0
   -6.2578    2.4743    2.5085 C   0  0  0  0  0  0  0  0  0  0  0  0
   -6.7202    1.1507    0.4388 C   0  0  0  0  0  0  0  0  0  0  0  0
   -3.4187    1.4490    2.3788 N   0  0  0  0  0  0  0  0  0  0  0  0
   -2.8240    0.6320    3.2663 C   0  0  0  0  0  0  0  0  0  0  0  0
   -1.5680    1.0879    4.0293 C   0  0  0  0  0  0  0  0  0  0  0  0
   -0.3181    0.9734    3.1516 C   0  0  0  0  0  0  0  0  0  0  0  0
    0.9303    1.3383    3.9565 C   0  0  0  0  0  0  0  0  0  0  0  0
    1.0297    0.4764    5.1084 N   0  0  0  0  0  0  0  0  0  0  0  0
    2.0439   -0.4071    5.2249 C   0  0  0  0  0  0  0  0  0  0  0  0
    1.8722   -1.4272    6.2280 C   0  0  0  0  0  0  0  0  0  0  0  0
    1.8004   -2.4110    6.9189 C   0  0  0  0  0  0  0  0  0  0  0  0
    1.7996   -3.6116    7.7524 C   0  0  0  0  0  0  0  0  0  0  0  0
    3.1676   -4.1158    7.9569 N   0  0  0  0  0  0  0  0  0  0  0  0
    4.0100   -3.2097    8.7164 C   0  0  0  0  0  0  0  0  0  0  0  0
    3.8322   -4.4924    6.7215 C   0  0  0  0  0  0  0  0  0  0  0  0
    1.1433   -3.2930    9.1052 C   0  0  0  0  0  0  0  0  0  0  0  0
    0.9499   -4.6803    7.0425 C   0  0  0  0  0  0  0  0  0  0  0  0
    3.0454   -0.3792    4.5272 O   0  0  0  0  0  0  0  0  0  0  0  0
   -0.0971    0.5588    6.0021 C   0  0  0  0  0  0  0  0  0  0  0  0
   -1.3966    0.2152    5.2767 C   0  0  0  0  0  0  0  0  0  0  0  0
   -3.2559   -0.4917    3.4894 O   0  0  0  0  0  0  0  0  0  0  0  0
   -2.8990    2.7015    1.8747 C   0  0  0  0  0  0  0  0  0  0  0  0
   -3.1439    0.6204   -0.3041 O   0  0  0  0  0  0  0  0  0  0  0  0
   -4.1568   -3.4009   -0.5809 C   0  0  0  0  0  0  0  0  0  0  0  0
   -3.2678   -3.8429    0.5925 C   0  0  0  0  0  0  0  0  0  0  0  0
   -2.0027   -2.9918    0.7191 C   0  0  0  0  0  0  0  0  0  0  0  0
   -1.1826   -3.4471    1.8232 N   0  0  0  0  0  0  0  0  0  0  0  0
   -1.9663   -3.4166    3.0528 C   0  0  0  0  0  0  0  0  0  0  0  0
   -3.2392   -4.2430    2.8695 C   0  0  0  0  0  0  0  0  0  0  0  0
   -4.0165   -3.7748    1.7908 O   0  0  0  0  0  0  0  0  0  0  0  0
   -6.1109   -1.9580   -2.1748 O   0  0  0  0  0  0  0  0  0  0  0  0
   -5.0342   -0.6239   -4.3478 C   0  0  0  0  0  0  0  0  0  0  0  0
   -4.3014   -1.5539   -5.3200 C   0  0  0  0  0  0  0  0  0  0  0  0
   -2.7978   -1.2793   -5.2794 C   0  0  0  0  0  0  0  0  0  0  0  0
   -0.0812   -1.0656   -4.7150 O   0  0  0  0  0  0  0  0  0  0  0  0
    1.7026   -1.2217    1.1115 C   0  0  0  0  0  0  0  0  0  0  0  0
    2.6776   -1.8035    1.9504 C   0  0  0  0  0  0  0  0  0  0  0  0
    2.3490   -2.8699    2.7820 C   0  0  0  0  0  0  0  0  0  0  0  0
    1.0643   -3.3609    2.7380 C   0  0  0  0  0  0  0  0  0  0  0  0
    0.0834   -2.8158    1.8875 C   0  0  0  0  0  0  0  0  0  0  0  0
    0.4033   -1.7291    1.0917 C   0  0  0  0  0  0  0  0  0  0  0  0
   -1.7179    2.4098    4.4584 F   0  0  0  0  0  0  0  0  0  0  0  0
    4.0469    2.9495    3.9550 H   0  0  0  0  0  0  0  0  0  0  0  0
    4.1606    1.2916    3.3576 H   0  0  0  0  0  0  0  0  0  0  0  0
    5.5951    2.3339    3.3716 H   0  0  0  0  0  0  0  0  0  0  0  0
    4.5281    3.8503    1.7097 H   0  0  0  0  0  0  0  0  0  0  0  0
    2.1305    4.1228    2.8990 H   0  0  0  0  0  0  0  0  0  0  0  0
    2.4783    4.7562    1.2717 H   0  0  0  0  0  0  0  0  0  0  0  0
    1.0621    3.7079    1.5355 H   0  0  0  0  0  0  0  0  0  0  0  0
    7.7203    2.7751   -0.8283 H   0  0  0  0  0  0  0  0  0  0  0  0
    7.5110    0.3844   -1.5704 H   0  0  0  0  0  0  0  0  0  0  0  0
    5.5578   -0.9166   -0.7494 H   0  0  0  0  0  0  0  0  0  0  0  0
    5.7409   -0.5486    2.3480 H   0  0  0  0  0  0  0  0  0  0  0  0
    4.8358   -1.5227    3.5192 H   0  0  0  0  0  0  0  0  0  0  0  0
    6.6436   -2.8838    2.5365 H   0  0  0  0  0  0  0  0  0  0  0  0
    5.0887   -3.5196    1.9874 H   0  0  0  0  0  0  0  0  0  0  0  0
    6.0751   -2.5398    0.9024 H   0  0  0  0  0  0  0  0  0  0  0  0
    0.5703    0.8254   -0.2339 H   0  0  0  0  0  0  0  0  0  0  0  0
    2.0491    1.7681   -0.4357 H   0  0  0  0  0  0  0  0  0  0  0  0
   -0.1317    1.5443   -2.4639 H   0  0  0  0  0  0  0  0  0  0  0  0
    1.3805    2.4206   -2.7109 H   0  0  0  0  0  0  0  0  0  0  0  0
    0.8668    1.2033   -3.8811 H   0  0  0  0  0  0  0  0  0  0  0  0
    3.6292   -0.4932   -2.0797 H   0  0  0  0  0  0  0  0  0  0  0  0
    3.1316    0.2300   -3.6113 H   0  0  0  0  0  0  0  0  0  0  0  0
    3.6236    1.2615   -2.2651 H   0  0  0  0  0  0  0  0  0  0  0  0
    1.5043   -1.4365   -3.1837 H   0  0  0  0  0  0  0  0  0  0  0  0
    1.2348   -1.6557   -1.4315 H   0  0  0  0  0  0  0  0  0  0  0  0
   -2.4583   -2.3442   -3.4234 H   0  0  0  0  0  0  0  0  0  0  0  0
   -2.7247   -0.0679   -2.1838 H   0  0  0  0  0  0  0  0  0  0  0  0
   -3.0286   -1.6499   -1.1296 H   0  0  0  0  0  0  0  0  0  0  0  0
   -5.1126   -1.5358    0.8857 H   0  0  0  0  0  0  0  0  0  0  0  0
   -4.9807    0.1131    2.3341 H   0  0  0  0  0  0  0  0  0  0  0  0
   -5.1987    2.6375    0.6315 H   0  0  0  0  0  0  0  0  0  0  0  0
   -5.5036    2.9160    3.1544 H   0  0  0  0  0  0  0  0  0  0  0  0
   -6.9703    3.2476    2.2316 H   0  0  0  0  0  0  0  0  0  0  0  0
   -6.7843    1.7121    3.0790 H   0  0  0  0  0  0  0  0  0  0  0  0
   -7.1494    0.3218    0.9976 H   0  0  0  0  0  0  0  0  0  0  0  0
   -7.5182    1.8522    0.2075 H   0  0  0  0  0  0  0  0  0  0  0  0
   -6.3262    0.7676   -0.4992 H   0  0  0  0  0  0  0  0  0  0  0  0
   -0.2382   -0.0593    2.8054 H   0  0  0  0  0  0  0  0  0  0  0  0
   -0.3815    1.6180    2.2765 H   0  0  0  0  0  0  0  0  0  0  0  0
    1.8174    1.2084    3.3364 H   0  0  0  0  0  0  0  0  0  0  0  0
    0.8644    2.3803    4.2892 H   0  0  0  0  0  0  0  0  0  0  0  0
    3.6106   -3.0753    9.7184 H   0  0  0  0  0  0  0  0  0  0  0  0
    4.9970   -3.6601    8.8111 H   0  0  0  0  0  0  0  0  0  0  0  0
    4.1220   -2.2257    8.2378 H   0  0  0  0  0  0  0  0  0  0  0  0
    4.8315   -4.8494    6.9668 H   0  0  0  0  0  0  0  0  0  0  0  0
    3.2976   -5.3072    6.2402 H   0  0  0  0  0  0  0  0  0  0  0  0
    3.9256   -3.6552    6.0148 H   0  0  0  0  0  0  0  0  0  0  0  0
    1.5577   -2.3916    9.5485 H   0  0  0  0  0  0  0  0  0  0  0  0
    0.0762   -3.1363    8.9668 H   0  0  0  0  0  0  0  0  0  0  0  0
    1.2926   -4.1294    9.7827 H   0  0  0  0  0  0  0  0  0  0  0  0
    1.0935   -5.6379    7.5361 H   0  0  0  0  0  0  0  0  0  0  0  0
   -0.1016   -4.4081    7.0932 H   0  0  0  0  0  0  0  0  0  0  0  0
    1.2204   -4.7696    5.9941 H   0  0  0  0  0  0  0  0  0  0  0  0
    0.0553   -0.1214    6.8420 H   0  0  0  0  0  0  0  0  0  0  0  0
   -0.1595    1.5859    6.3847 H   0  0  0  0  0  0  0  0  0  0  0  0
   -2.2475    0.3684    5.9417 H   0  0  0  0  0  0  0  0  0  0  0  0
   -1.3879   -0.8284    4.9641 H   0  0  0  0  0  0  0  0  0  0  0  0
   -2.0023    2.9979    2.4031 H   0  0  0  0  0  0  0  0  0  0  0  0
   -2.6723    2.5891    0.8126 H   0  0  0  0  0  0  0  0  0  0  0  0
   -3.6371    3.4933    2.0043 H   0  0  0  0  0  0  0  0  0  0  0  0
   -5.1924   -3.6513   -0.3445 H   0  0  0  0  0  0  0  0  0  0  0  0
   -3.8727   -3.9581   -1.4751 H   0  0  0  0  0  0  0  0  0  0  0  0
   -2.9653   -4.8937    0.4367 H   0  0  0  0  0  0  0  0  0  0  0  0
   -1.4203   -3.0731   -0.2016 H   0  0  0  0  0  0  0  0  0  0  0  0
   -2.3055   -1.9486    0.8888 H   0  0  0  0  0  0  0  0  0  0  0  0
   -1.3765   -3.8271    3.8729 H   0  0  0  0  0  0  0  0  0  0  0  0
   -2.2668   -2.3872    3.2994 H   0  0  0  0  0  0  0  0  0  0  0  0
   -2.9750   -5.2986    2.6990 H   0  0  0  0  0  0  0  0  0  0  0  0
   -3.8701   -4.1619    3.7557 H   0  0  0  0  0  0  0  0  0  0  0  0
   -6.0862   -0.8931   -4.2559 H   0  0  0  0  0  0  0  0  0  0  0  0
   -4.9359    0.4162   -4.6641 H   0  0  0  0  0  0  0  0  0  0  0  0
   -4.4950   -2.5890   -5.0279 H   0  0  0  0  0  0  0  0  0  0  0  0
   -4.6837   -1.4080   -6.3299 H   0  0  0  0  0  0  0  0  0  0  0  0
   -2.5894   -0.2850   -5.6754 H   0  0  0  0  0  0  0  0  0  0  0  0
   -2.2535   -2.0069   -5.8807 H   0  0  0  0  0  0  0  0  0  0  0  0
    3.0757   -3.3062    3.4501 H   0  0  0  0  0  0  0  0  0  0  0  0
    0.7974   -4.2053    3.3558 H   0  0  0  0  0  0  0  0  0  0  0  0
   -0.3204   -1.2553    0.4492 H   0  0  0  0  0  0  0  0  0  0  0  0
  1  2  1  0  0  0  0
  2  3  1  0  0  0  0
  3  4  1  0  0  0  0
  2  5  1  0  0  0  0
  5  6  4  0  0  0  0
  6  7  4  0  0  0  0
  7  8  4  0  0  0  0
  8  9  4  0  0  0  0
  5 10  4  0  0  0  0
  9 10  4  0  0  0  0
 10 11  1  0  0  0  0
 11 12  1  0  0  0  0
 12 13  1  0  0  0  0
 13 14  1  0  0  0  0
 11 15  2  0  0  0  0
 15 16  1  0  0  0  0
 16 17  1  0  0  0  0
 17 18  1  0  0  0  0
 17 19  1  0  0  0  0
 17 20  1  0  0  0  0
 20 21  1  0  0  0  0
 21 22  1  0  0  0  0
 22 23  1  0  0  0  0
 23 24  1  0  0  0  0
 24 25  1  0  0  0  0
 25 26  4  0  0  0  0
 26 27  1  0  0  0  0
 27 28  1  0  0  0  0
 28 29  4  0  0  0  0
 29 30  1  0  0  0  0
 30 31  1  0  0  0  0
 31 32  1  0  0  0  0
 31 33  1  0  0  0  0
 30 34  1  0  0  0  0
 34 35  4  0  0  0  0
 35 36  1  0  0  0  0
 36 37  1  0  0  0  0
 37 38  1  0  0  0  0
 38 39  1  0  0  0  0
 39 40  4  0  0  0  0
 40 41  1  0  0  0  0
 41 42  3  0  0  0  0
 42 43  1  0  0  0  0
 43 44  1  0  0  0  0
 44 45  1  0  0  0  0
 44 46  1  0  0  0  0
 43 47  1  0  0  0  0
 43 48  1  0  0  0  0
 40 49  2  0  0  0  0
 39 50  1  0  0  0  0
 36 51  1  0  0  0  0
 50 51  1  0  0  0  0
 35 52  2  0  0  0  0
 34 53  1  0  0  0  0
 29 54  2  0  0  0  0
 27 55  1  0  0  0  0
 55 56  1  0  0  0  0
 56 57  1  0  0  0  0
 57 58  1  0  0  0  0
 58 59  1  0  0  0  0
 59 60  1  0  0  0  0
 56 61  1  0  0  0  0
 60 61  1  0  0  0  0
 26 62  2  0  0  0  0
 25 63  1  0  0  0  0
 63 64  1  0  0  0  0
 23 65  1  0  0  0  0
 64 65  1  0  0  0  0
 22 66  2  0  0  0  0
 15 67  4  0  0  0  0
 12 68  1  0  0  0  0
 67 68  4  0  0  0  0
 68 69  4  0  0  0  0
 69 70  2  0  0  0  0
 58 71  1  0  0  0  0
 70 71  4  0  0  0  0
 67 72  4  0  0  0  0
 71 72  4  0  0  0  0
 36 73  1  0  0  0  0
  1 74  1  0  0  0  0
  1 75  1  0  0  0  0
  1 76  1  0  0  0  0
  2 77  1  0  0  0  0
  4 78  1  0  0  0  0
  4 79  1  0  0  0  0
  4 80  1  0  0  0  0
  7 81  1  0  0  0  0
  8 82  1  0  0  0  0
  9 83  1  0  0  0  0
 13 84  1  0  0  0  0
 13 85  1  0  0  0  0
 14 86  1  0  0  0  0
 14 87  1  0  0  0  0
 14 88  1  0  0  0  0
 16 89  1  0  0  0  0
 16 90  1  0  0  0  0
 18 91  1  0  0  0  0
 18 92  1  0  0  0  0
 18 93  1  0  0  0  0
 19 94  1  0  0  0  0
 19 95  1  0  0  0  0
 19 96  1  0  0  0  0
 20 97  1  0  0  0  0
 20 98  1  0  0  0  0
 23 99  1  0  0  0  0
 24100  1  0  0  0  0
 27101  1  0  0  0  0
 28102  1  0  0  0  0
 30103  1  0  0  0  0
 31104  1  0  0  0  0
 32105  1  0  0  0  0
 32106  1  0  0  0  0
 32107  1  0  0  0  0
 33108  1  0  0  0  0
 33109  1  0  0  0  0
 33110  1  0  0  0  0
 37111  1  0  0  0  0
 37112  1  0  0  0  0
 38113  1  0  0  0  0
 38114  1  0  0  0  0
 45115  1  0  0  0  0
 45116  1  0  0  0  0
 45117  1  0  0  0  0
 46118  1  0  0  0  0
 46119  1  0  0  0  0
 46120  1  0  0  0  0
 47121  1  0  0  0  0
 47122  1  0  0  0  0
 47123  1  0  0  0  0
 48124  1  0  0  0  0
 48125  1  0  0  0  0
 48126  1  0  0  0  0
 50127  1  0  0  0  0
 50128  1  0  0  0  0
 51129  1  0  0  0  0
 51130  1  0  0  0  0
 53131  1  0  0  0  0
 53132  1  0  0  0  0
 53133  1  0  0  0  0
 55134  1  0  0  0  0
 55135  1  0  0  0  0
 56136  1  0  0  0  0
 57137  1  0  0  0  0
 57138  1  0  0  0  0
 59139  1  0  0  0  0
 59140  1  0  0  0  0
 60141  1  0  0  0  0
 60142  1  0  0  0  0
 63143  1  0  0  0  0
 63144  1  0  0  0  0
 64145  1  0  0  0  0
 64146  1  0  0  0  0
 65147  1  0  0  0  0
 65148  1  0  0  0  0
 69149  1  0  0  0  0
 70150  1  0  0  0  0
 72151  1  0  0  0  0
M  END
$$$$
