 xtb: 6.7.1 (edcfbbe)
          08232517163D

151157  0     0  0            999 V2000
   -4.3760    1.2746   -3.5867 C   0  0  0  0  0  0  0  0  0  0  0  0
   -4.4505    2.1392   -2.3221 C   0  0  0  0  0  0  0  0  0  0  0  0
   -3.1602    2.5028   -1.8543 O   0  0  0  0  0  0  0  0  0  0  0  0
   -2.6588    3.6821   -2.4222 C   0  0  0  0  0  0  0  0  0  0  0  0
   -5.2184    1.4360   -1.2237 C   0  0  0  0  0  0  0  0  0  0  0  0
   -6.4735    1.8504   -1.1076 N   0  0  0  0  0  0  0  0  0  0  0  0
   -7.2571    1.3183   -0.1891 C   0  0  0  0  0  0  0  0  0  0  0  0
   -6.8271    0.3429    0.6956 C   0  0  0  0  0  0  0  0  0  0  0  0
   -5.5209   -0.0963    0.5798 C   0  0  0  0  0  0  0  0  0  0  0  0
   -4.6868    0.4369   -0.4014 C   0  0  0  0  0  0  0  0  0  0  0  0
   -3.3159   -0.0847   -0.5025 C   0  0  0  0  0  0  0  0  0  0  0  0
   -3.0447   -1.2017   -1.2435 N   0  0  0  0  0  0  0  0  0  0  0  0
   -3.9945   -1.9861   -1.9863 C   0  0  0  0  0  0  0  0  0  0  0  0
   -4.4270   -3.2301   -1.2104 C   0  0  0  0  0  0  0  0  0  0  0  0
   -2.1969    0.3512    0.1738 C   0  0  0  0  0  0  0  0  0  0  0  0
   -2.3417    1.5515    1.0824 C   0  0  0  0  0  0  0  0  0  0  0  0
   -1.1282    2.1749    1.7875 C   0  0  0  0  0  0  0  0  0  0  0  0
   -1.5975    3.4190    2.5531 C   0  0  0  0  0  0  0  0  0  0  0  0
   -0.0809    2.6109    0.7618 C   0  0  0  0  0  0  0  0  0  0  0  0
   -0.5925    1.1575    2.8130 C   0  0  0  0  0  0  0  0  0  0  0  0
    0.7372    1.4397    3.2648 O   0  0  0  0  0  0  0  0  0  0  0  0
    0.9022    1.9449    4.4854 C   0  0  0  0  0  0  0  0  0  0  0  0
    2.3908    2.0323    4.8034 C   0  0  0  0  0  0  0  0  0  0  0  0
    3.1029    2.8823    3.8570 N   0  0  0  0  0  0  0  0  0  0  0  0
    4.4791    2.6842    4.0049 N   0  0  0  0  0  0  0  0  0  0  0  0
    5.2059    1.7270    3.3865 C   0  0  0  0  0  0  0  0  0  0  0  0
    4.4692    0.8944    2.3149 C   0  0  0  0  0  0  0  0  0  0  0  0
    4.8467    1.3512    0.9913 N   0  0  0  0  0  0  0  0  0  0  0  0
    4.1969    2.3549    0.3897 C   0  0  0  0  0  0  0  0  0  0  0  0
    4.6825    2.6807   -1.0249 C   0  0  0  0  0  0  0  0  0  0  0  0
    5.5659    3.9404   -1.0264 C   0  0  0  0  0  0  0  0  0  0  0  0
    6.1218    4.1837   -2.4280 C   0  0  0  0  0  0  0  0  0  0  0  0
    6.7127    3.7710   -0.0309 C   0  0  0  0  0  0  0  0  0  0  0  0
    3.5268    2.7779   -1.9174 N   0  0  0  0  0  0  0  0  0  0  0  0
    3.2820    1.7052   -2.6883 C   0  0  0  0  0  0  0  0  0  0  0  0
    2.0505    1.6739   -3.6134 C   0  0  0  0  0  0  0  0  0  0  0  0
    2.2524    0.5975   -4.6848 C   0  0  0  0  0  0  0  0  0  0  0  0
    0.9994    0.4443   -5.5469 C   0  0  0  0  0  0  0  0  0  0  0  0
   -0.1631    0.2038   -4.7306 N   0  0  0  0  0  0  0  0  0  0  0  0
   -0.9299   -0.9066   -4.7782 C   0  0  0  0  0  0  0  0  0  0  0  0
   -0.4554   -1.9560   -5.6461 C   0  0  0  0  0  0  0  0  0  0  0  0
   -0.1913   -2.9691   -6.2405 C   0  0  0  0  0  0  0  0  0  0  0  0
    0.2323   -4.1360   -7.0090 C   0  0  0  0  0  0  0  0  0  0  0  0
   -0.5689   -5.2812   -6.5672 N   0  0  0  0  0  0  0  0  0  0  0  0
   -0.5530   -5.5050   -5.1369 C   0  0  0  0  0  0  0  0  0  0  0  0
   -0.3332   -6.5175   -7.2781 C   0  0  0  0  0  0  0  0  0  0  0  0
   -0.0665   -3.8216   -8.4850 C   0  0  0  0  0  0  0  0  0  0  0  0
    1.7546   -4.3035   -6.8109 C   0  0  0  0  0  0  0  0  0  0  0  0
   -1.9561   -1.0426   -4.1324 O   0  0  0  0  0  0  0  0  0  0  0  0
   -0.4210    1.2339   -3.7551 C   0  0  0  0  0  0  0  0  0  0  0  0
    0.7781    1.3672   -2.8162 C   0  0  0  0  0  0  0  0  0  0  0  0
    3.9982    0.7120   -2.6569 O   0  0  0  0  0  0  0  0  0  0  0  0
    2.7217    3.9755   -1.8117 C   0  0  0  0  0  0  0  0  0  0  0  0
    3.2836    2.9603    0.9339 O   0  0  0  0  0  0  0  0  0  0  0  0
    4.8160   -0.5828    2.4897 C   0  0  0  0  0  0  0  0  0  0  0  0
    4.2276   -1.4880    1.3995 C   0  0  0  0  0  0  0  0  0  0  0  0
    2.8187   -1.0634    0.9711 C   0  0  0  0  0  0  0  0  0  0  0  0
    2.3086   -1.9476   -0.0583 N   0  0  0  0  0  0  0  0  0  0  0  0
    3.2383   -1.9904   -1.1817 C   0  0  0  0  0  0  0  0  0  0  0  0
    4.6336   -2.3752   -0.6955 C   0  0  0  0  0  0  0  0  0  0  0  0
    5.1035   -1.4822    0.2882 O   0  0  0  0  0  0  0  0  0  0  0  0
    6.3906    1.5609    3.6108 O   0  0  0  0  0  0  0  0  0  0  0  0
    4.9303    3.2799    5.2490 C   0  0  0  0  0  0  0  0  0  0  0  0
    4.2035    2.5991    6.4157 C   0  0  0  0  0  0  0  0  0  0  0  0
    2.6893    2.6079    6.1893 C   0  0  0  0  0  0  0  0  0  0  0  0
    0.0206    2.2182    5.2530 O   0  0  0  0  0  0  0  0  0  0  0  0
   -1.1495   -0.5541   -0.1928 C   0  0  0  0  0  0  0  0  0  0  0  0
   -1.7276   -1.5061   -1.0743 C   0  0  0  0  0  0  0  0  0  0  0  0
   -0.9872   -2.5520   -1.6131 C   0  0  0  0  0  0  0  0  0  0  0  0
    0.3384   -2.6646   -1.2729 C   0  0  0  0  0  0  0  0  0  0  0  0
    0.9522   -1.7390   -0.4089 C   0  0  0  0  0  0  0  0  0  0  0  0
    0.2123   -0.6903    0.1125 C   0  0  0  0  0  0  0  0  0  0  0  0
    1.9045    2.8987   -4.2680 F   0  0  0  0  0  0  0  0  0  0  0  0
   -3.7033    0.4345   -3.4378 H   0  0  0  0  0  0  0  0  0  0  0  0
   -5.3676    0.9064   -3.8354 H   0  0  0  0  0  0  0  0  0  0  0  0
   -4.0091    1.8657   -4.4231 H   0  0  0  0  0  0  0  0  0  0  0  0
   -5.0267    3.0491   -2.5503 H   0  0  0  0  0  0  0  0  0  0  0  0
   -1.6773    3.8421   -1.9793 H   0  0  0  0  0  0  0  0  0  0  0  0
   -2.5545    3.6053   -3.5101 H   0  0  0  0  0  0  0  0  0  0  0  0
   -3.3040    4.5403   -2.1930 H   0  0  0  0  0  0  0  0  0  0  0  0
   -8.2686    1.7021   -0.1612 H   0  0  0  0  0  0  0  0  0  0  0  0
   -7.4892   -0.0583    1.4470 H   0  0  0  0  0  0  0  0  0  0  0  0
   -5.1327   -0.8547    1.2459 H   0  0  0  0  0  0  0  0  0  0  0  0
   -4.8669   -1.3627   -2.1964 H   0  0  0  0  0  0  0  0  0  0  0  0
   -3.5334   -2.2690   -2.9356 H   0  0  0  0  0  0  0  0  0  0  0  0
   -4.9404   -2.9482   -0.2937 H   0  0  0  0  0  0  0  0  0  0  0  0
   -5.1025   -3.8282   -1.8161 H   0  0  0  0  0  0  0  0  0  0  0  0
   -3.5619   -3.8345   -0.9492 H   0  0  0  0  0  0  0  0  0  0  0  0
   -2.7994    2.3347    0.4723 H   0  0  0  0  0  0  0  0  0  0  0  0
   -3.0737    1.2875    1.8560 H   0  0  0  0  0  0  0  0  0  0  0  0
   -0.7584    3.8864    3.0639 H   0  0  0  0  0  0  0  0  0  0  0  0
   -2.0315    4.1457    1.8702 H   0  0  0  0  0  0  0  0  0  0  0  0
   -2.3466    3.1599    3.2982 H   0  0  0  0  0  0  0  0  0  0  0  0
    0.8728    2.8327    1.2336 H   0  0  0  0  0  0  0  0  0  0  0  0
    0.0627    1.8436    0.0115 H   0  0  0  0  0  0  0  0  0  0  0  0
   -0.4294    3.5115    0.2605 H   0  0  0  0  0  0  0  0  0  0  0  0
   -1.2536    1.1430    3.6854 H   0  0  0  0  0  0  0  0  0  0  0  0
   -0.5542    0.1571    2.3810 H   0  0  0  0  0  0  0  0  0  0  0  0
    2.7592    0.9872    4.7599 H   0  0  0  0  0  0  0  0  0  0  0  0
    2.8174    2.8124    2.8823 H   0  0  0  0  0  0  0  0  0  0  0  0
    3.3887    1.0284    2.4159 H   0  0  0  0  0  0  0  0  0  0  0  0
    5.5356    0.7954    0.5057 H   0  0  0  0  0  0  0  0  0  0  0  0
    5.2761    1.8386   -1.3956 H   0  0  0  0  0  0  0  0  0  0  0  0
    4.9651    4.7985   -0.7130 H   0  0  0  0  0  0  0  0  0  0  0  0
    6.7031    5.1023   -2.4471 H   0  0  0  0  0  0  0  0  0  0  0  0
    6.7701    3.3606   -2.7209 H   0  0  0  0  0  0  0  0  0  0  0  0
    5.3267    4.2650   -3.1648 H   0  0  0  0  0  0  0  0  0  0  0  0
    6.3438    3.6696    0.9867 H   0  0  0  0  0  0  0  0  0  0  0  0
    7.3060    2.8916   -0.2722 H   0  0  0  0  0  0  0  0  0  0  0  0
    7.3637    4.6410   -0.0690 H   0  0  0  0  0  0  0  0  0  0  0  0
    3.1022    0.8718   -5.3114 H   0  0  0  0  0  0  0  0  0  0  0  0
    2.4861   -0.3407   -4.1825 H   0  0  0  0  0  0  0  0  0  0  0  0
    0.8403    1.3695   -6.1162 H   0  0  0  0  0  0  0  0  0  0  0  0
    1.1256   -0.3832   -6.2475 H   0  0  0  0  0  0  0  0  0  0  0  0
    0.3863   -5.9531   -4.7767 H   0  0  0  0  0  0  0  0  0  0  0  0
   -0.7171   -4.5638   -4.6167 H   0  0  0  0  0  0  0  0  0  0  0  0
   -1.3684   -6.1851   -4.8888 H   0  0  0  0  0  0  0  0  0  0  0  0
   -1.1048   -7.2274   -6.9789 H   0  0  0  0  0  0  0  0  0  0  0  0
   -0.4180   -6.3629   -8.3501 H   0  0  0  0  0  0  0  0  0  0  0  0
    0.6459   -6.9707   -7.0569 H   0  0  0  0  0  0  0  0  0  0  0  0
   -1.1378   -3.8752   -8.6593 H   0  0  0  0  0  0  0  0  0  0  0  0
    0.2767   -2.8171   -8.7221 H   0  0  0  0  0  0  0  0  0  0  0  0
    0.4428   -4.5192   -9.1445 H   0  0  0  0  0  0  0  0  0  0  0  0
    1.9896   -4.4598   -5.7607 H   0  0  0  0  0  0  0  0  0  0  0  0
    2.1172   -5.1512   -7.3873 H   0  0  0  0  0  0  0  0  0  0  0  0
    2.2709   -3.4081   -7.1484 H   0  0  0  0  0  0  0  0  0  0  0  0
   -0.5897    2.1860   -4.2716 H   0  0  0  0  0  0  0  0  0  0  0  0
   -1.3121    0.9654   -3.1857 H   0  0  0  0  0  0  0  0  0  0  0  0
    0.9283    0.4289   -2.2779 H   0  0  0  0  0  0  0  0  0  0  0  0
    0.5738    2.1500   -2.0881 H   0  0  0  0  0  0  0  0  0  0  0  0
    2.5831    4.2035   -0.7551 H   0  0  0  0  0  0  0  0  0  0  0  0
    3.2162    4.8144   -2.3055 H   0  0  0  0  0  0  0  0  0  0  0  0
    1.7493    3.8441   -2.2688 H   0  0  0  0  0  0  0  0  0  0  0  0
    5.9023   -0.6923    2.4794 H   0  0  0  0  0  0  0  0  0  0  0  0
    4.4511   -0.9102    3.4645 H   0  0  0  0  0  0  0  0  0  0  0  0
    4.1714   -2.5204    1.7874 H   0  0  0  0  0  0  0  0  0  0  0  0
    2.1587   -1.1167    1.8398 H   0  0  0  0  0  0  0  0  0  0  0  0
    2.8579   -0.0304    0.5937 H   0  0  0  0  0  0  0  0  0  0  0  0
    2.8987   -2.7241   -1.9117 H   0  0  0  0  0  0  0  0  0  0  0  0
    3.3122   -1.0083   -1.6719 H   0  0  0  0  0  0  0  0  0  0  0  0
    4.6186   -3.3966   -0.2848 H   0  0  0  0  0  0  0  0  0  0  0  0
    5.3440   -2.3212   -1.5214 H   0  0  0  0  0  0  0  0  0  0  0  0
    6.0092    3.1437    5.3206 H   0  0  0  0  0  0  0  0  0  0  0  0
    4.6858    4.3435    5.2163 H   0  0  0  0  0  0  0  0  0  0  0  0
    4.5540    1.5668    6.4916 H   0  0  0  0  0  0  0  0  0  0  0  0
    4.4483    3.1104    7.3464 H   0  0  0  0  0  0  0  0  0  0  0  0
    2.3094    3.6291    6.2224 H   0  0  0  0  0  0  0  0  0  0  0  0
    2.1793    2.0264    6.9570 H   0  0  0  0  0  0  0  0  0  0  0  0
   -1.4417   -3.2625   -2.2859 H   0  0  0  0  0  0  0  0  0  0  0  0
    0.9164   -3.4899   -1.6596 H   0  0  0  0  0  0  0  0  0  0  0  0
    0.6888    0.0291    0.7510 H   0  0  0  0  0  0  0  0  0  0  0  0
  1  2  1  0  0  0  0
  2  3  1  0  0  0  0
  3  4  1  0  0  0  0
  2  5  1  0  0  0  0
  5  6  4  0  0  0  0
  6  7  4  0  0  0  0
  7  8  4  0  0  0  0
  8  9  4  0  0  0  0
  5 10  4  0  0  0  0
  9 10  4  0  0  0  0
 10 11  1  0  0  0  0
 11 12  1  0  0  0  0
 12 13  1  0  0  0  0
 13 14  1  0  0  0  0
 11 15  2  0  0  0  0
 15 16  1  0  0  0  0
 16 17  1  0  0  0  0
 17 18  1  0  0  0  0
 17 19  1  0  0  0  0
 17 20  1  0  0  0  0
 20 21  1  0  0  0  0
 21 22  1  0  0  0  0
 22 23  1  0  0  0  0
 23 24  1  0  0  0  0
 24 25  1  0  0  0  0
 25 26  4  0  0  0  0
 26 27  1  0  0  0  0
 27 28  1  0  0  0  0
 28 29  4  0  0  0  0
 29 30  1  0  0  0  0
 30 31  1  0  0  0  0
 31 32  1  0  0  0  0
 31 33  1  0  0  0  0
 30 34  1  0  0  0  0
 34 35  4  0  0  0  0
 35 36  1  0  0  0  0
 36 37  1  0  0  0  0
 37 38  1  0  0  0  0
 38 39  1  0  0  0  0
 39 40  4  0  0  0  0
 40 41  1  0  0  0  0
 41 42  3  0  0  0  0
 42 43  1  0  0  0  0
 43 44  1  0  0  0  0
 44 45  1  0  0  0  0
 44 46  1  0  0  0  0
 43 47  1  0  0  0  0
 43 48  1  0  0  0  0
 40 49  2  0  0  0  0
 39 50  1  0  0  0  0
 36 51  1  0  0  0  0
 50 51  1  0  0  0  0
 35 52  2  0  0  0  0
 34 53  1  0  0  0  0
 29 54  2  0  0  0  0
 27 55  1  0  0  0  0
 55 56  1  0  0  0  0
 56 57  1  0  0  0  0
 57 58  1  0  0  0  0
 58 59  1  0  0  0  0
 59 60  1  0  0  0  0
 56 61  1  0  0  0  0
 60 61  1  0  0  0  0
 26 62  2  0  0  0  0
 25 63  1  0  0  0  0
 63 64  1  0  0  0  0
 23 65  1  0  0  0  0
 64 65  1  0  0  0  0
 22 66  2  0  0  0  0
 15 67  4  0  0  0  0
 12 68  1  0  0  0  0
 67 68  4  0  0  0  0
 68 69  4  0  0  0  0
 69 70  2  0  0  0  0
 58 71  1  0  0  0  0
 70 71  4  0  0  0  0
 67 72  4  0  0  0  0
 71 72  4  0  0  0  0
 36 73  1  0  0  0  0
  1 74  1  0  0  0  0
  1 75  1  0  0  0  0
  1 76  1  0  0  0  0
  2 77  1  0  0  0  0
  4 78  1  0  0  0  0
  4 79  1  0  0  0  0
  4 80  1  0  0  0  0
  7 81  1  0  0  0  0
  8 82  1  0  0  0  0
  9 83  1  0  0  0  0
 13 84  1  0  0  0  0
 13 85  1  0  0  0  0
 14 86  1  0  0  0  0
 14 87  1  0  0  0  0
 14 88  1  0  0  0  0
 16 89  1  0  0  0  0
 16 90  1  0  0  0  0
 18 91  1  0  0  0  0
 18 92  1  0  0  0  0
 18 93  1  0  0  0  0
 19 94  1  0  0  0  0
 19 95  1  0  0  0  0
 19 96  1  0  0  0  0
 20 97  1  0  0  0  0
 20 98  1  0  0  0  0
 23 99  1  0  0  0  0
 24100  1  0  0  0  0
 27101  1  0  0  0  0
 28102  1  0  0  0  0
 30103  1  0  0  0  0
 31104  1  0  0  0  0
 32105  1  0  0  0  0
 32106  1  0  0  0  0
 32107  1  0  0  0  0
 33108  1  0  0  0  0
 33109  1  0  0  0  0
 33110  1  0  0  0  0
 37111  1  0  0  0  0
 37112  1  0  0  0  0
 38113  1  0  0  0  0
 38114  1  0  0  0  0
 45115  1  0  0  0  0
 45116  1  0  0  0  0
 45117  1  0  0  0  0
 46118  1  0  0  0  0
 46119  1  0  0  0  0
 46120  1  0  0  0  0
 47121  1  0  0  0  0
 47122  1  0  0  0  0
 47123  1  0  0  0  0
 48124  1  0  0  0  0
 48125  1  0  0  0  0
 48126  1  0  0  0  0
 50127  1  0  0  0  0
 50128  1  0  0  0  0
 51129  1  0  0  0  0
 51130  1  0  0  0  0
 53131  1  0  0  0  0
 53132  1  0  0  0  0
 53133  1  0  0  0  0
 55134  1  0  0  0  0
 55135  1  0  0  0  0
 56136  1  0  0  0  0
 57137  1  0  0  0  0
 57138  1  0  0  0  0
 59139  1  0  0  0  0
 59140  1  0  0  0  0
 60141  1  0  0  0  0
 60142  1  0  0  0  0
 63143  1  0  0  0  0
 63144  1  0  0  0  0
 64145  1  0  0  0  0
 64146  1  0  0  0  0
 65147  1  0  0  0  0
 65148  1  0  0  0  0
 69149  1  0  0  0  0
 70150  1  0  0  0  0
 72151  1  0  0  0  0
M  END
$$$$
