 xtb: 6.7.1 (edcfbbe)
          08172520543D

151157  0     0  0            999 V2000
    1.7153    6.8446   -8.3565 C   0  0  0  0  0  0  0  0  0  0  0  0
    1.8492    5.3673   -7.9827 C   0  0  0  0  0  0  0  0  0  0  0  0
    2.9870    4.7546   -8.5711 O   0  0  0  0  0  0  0  0  0  0  0  0
    4.2152    5.1339   -8.0072 C   0  0  0  0  0  0  0  0  0  0  0  0
    0.6485    4.5882   -8.4816 C   0  0  0  0  0  0  0  0  0  0  0  0
    0.2186    4.9007   -9.6930 N   0  0  0  0  0  0  0  0  0  0  0  0
   -0.8218    4.2678  -10.1981 C   0  0  0  0  0  0  0  0  0  0  0  0
   -1.5156    3.2840   -9.5100 C   0  0  0  0  0  0  0  0  0  0  0  0
   -1.0790    2.9542   -8.2402 C   0  0  0  0  0  0  0  0  0  0  0  0
    0.0336    3.6001   -7.7011 C   0  0  0  0  0  0  0  0  0  0  0  0
    0.4906    3.2626   -6.3483 C   0  0  0  0  0  0  0  0  0  0  0  0
   -0.2786    3.5905   -5.2523 N   0  0  0  0  0  0  0  0  0  0  0  0
   -1.4571    4.4152   -5.2620 C   0  0  0  0  0  0  0  0  0  0  0  0
   -1.1069    5.8962   -5.1192 C   0  0  0  0  0  0  0  0  0  0  0  0
    1.6313    2.6045   -5.9504 C   0  0  0  0  0  0  0  0  0  0  0  0
    2.6800    2.0415   -6.8540 C   0  0  0  0  0  0  0  0  0  0  0  0
    2.4913    0.5553   -7.2405 C   0  0  0  0  0  0  0  0  0  0  0  0
    1.0462    0.2696   -7.6460 C   0  0  0  0  0  0  0  0  0  0  0  0
    3.4206    0.2363   -8.4141 C   0  0  0  0  0  0  0  0  0  0  0  0
    2.8444   -0.3549   -6.0593 C   0  0  0  0  0  0  0  0  0  0  0  0
    4.2345   -0.2124   -5.7492 O   0  0  0  0  0  0  0  0  0  0  0  0
    4.6606   -0.7642   -4.6245 C   0  0  0  0  0  0  0  0  0  0  0  0
    6.1334   -0.4747   -4.3715 C   0  0  0  0  0  0  0  0  0  0  0  0
    6.7499   -1.5502   -3.6129 N   0  0  0  0  0  0  0  0  0  0  0  0
    7.9610   -1.1008   -3.0807 N   0  0  0  0  0  0  0  0  0  0  0  0
    8.1052   -0.4097   -1.9259 C   0  0  0  0  0  0  0  0  0  0  0  0
    6.8665   -0.3510   -1.0095 C   0  0  0  0  0  0  0  0  0  0  0  0
    7.0312   -1.2924    0.0744 N   0  0  0  0  0  0  0  0  0  0  0  0
    6.6016   -2.5576   -0.0368 C   0  0  0  0  0  0  0  0  0  0  0  0
    6.7027   -3.3272    1.2832 C   0  0  0  0  0  0  0  0  0  0  0  0
    6.7706   -4.8458    1.0880 C   0  0  0  0  0  0  0  0  0  0  0  0
    6.6346   -5.5683    2.4251 C   0  0  0  0  0  0  0  0  0  0  0  0
    8.1048   -5.1861    0.4259 C   0  0  0  0  0  0  0  0  0  0  0  0
    5.5723   -2.8755    2.0981 N   0  0  0  0  0  0  0  0  0  0  0  0
    5.8379   -1.9231    3.0088 C   0  0  0  0  0  0  0  0  0  0  0  0
    4.7525   -1.4349    3.9790 C   0  0  0  0  0  0  0  0  0  0  0  0
    4.8377   -2.2759    5.2590 C   0  0  0  0  0  0  0  0  0  0  0  0
    3.8670   -1.7317    6.3085 C   0  0  0  0  0  0  0  0  0  0  0  0
    4.1049   -0.3283    6.5446 N   0  0  0  0  0  0  0  0  0  0  0  0
    4.4619    0.1036    7.7803 C   0  0  0  0  0  0  0  0  0  0  0  0
    4.6560    1.5295    7.8920 C   0  0  0  0  0  0  0  0  0  0  0  0
    4.7884    2.6933    8.1732 C   0  0  0  0  0  0  0  0  0  0  0  0
    5.0573    4.1191    8.3559 C   0  0  0  0  0  0  0  0  0  0  0  0
    6.3330    4.4994    7.7249 N   0  0  0  0  0  0  0  0  0  0  0  0
    6.3692    4.2751    6.2924 C   0  0  0  0  0  0  0  0  0  0  0  0
    7.4961    3.8971    8.3522 C   0  0  0  0  0  0  0  0  0  0  0  0
    3.9073    4.9285    7.7323 C   0  0  0  0  0  0  0  0  0  0  0  0
    5.0985    4.4242    9.8610 C   0  0  0  0  0  0  0  0  0  0  0  0
    4.5913   -0.6406    8.7353 O   0  0  0  0  0  0  0  0  0  0  0  0
    3.9938    0.5047    5.3744 C   0  0  0  0  0  0  0  0  0  0  0  0
    4.9818    0.0440    4.3016 C   0  0  0  0  0  0  0  0  0  0  0  0
    6.9698   -1.4858    3.1795 O   0  0  0  0  0  0  0  0  0  0  0  0
    4.2498   -3.2409    1.6340 C   0  0  0  0  0  0  0  0  0  0  0  0
    6.1152   -3.0162   -1.0549 O   0  0  0  0  0  0  0  0  0  0  0  0
    6.6617    1.0733   -0.4894 C   0  0  0  0  0  0  0  0  0  0  0  0
    5.1919    1.4061   -0.2180 C   0  0  0  0  0  0  0  0  0  0  0  0
    4.3566    1.4556   -1.5080 C   0  0  0  0  0  0  0  0  0  0  0  0
    2.9891    1.7883   -1.1698 N   0  0  0  0  0  0  0  0  0  0  0  0
    2.4570    0.7806   -0.2680 C   0  0  0  0  0  0  0  0  0  0  0  0
    3.3178    0.7565    0.9922 C   0  0  0  0  0  0  0  0  0  0  0  0
    4.6637    0.4603    0.6923 O   0  0  0  0  0  0  0  0  0  0  0  0
    9.1659    0.0864   -1.5939 O   0  0  0  0  0  0  0  0  0  0  0  0
    8.9372   -0.9745   -4.1477 C   0  0  0  0  0  0  0  0  0  0  0  0
    8.4300    0.0501   -5.1706 C   0  0  0  0  0  0  0  0  0  0  0  0
    7.0032   -0.2858   -5.6181 C   0  0  0  0  0  0  0  0  0  0  0  0
    3.9644   -1.3590   -3.8423 O   0  0  0  0  0  0  0  0  0  0  0  0
    1.5921    2.5611   -4.5234 C   0  0  0  0  0  0  0  0  0  0  0  0
    0.3905    3.1922   -4.1269 C   0  0  0  0  0  0  0  0  0  0  0  0
    0.0589    3.3262   -2.7836 C   0  0  0  0  0  0  0  0  0  0  0  0
    0.9345    2.8289   -1.8493 C   0  0  0  0  0  0  0  0  0  0  0  0
    2.1407    2.2004   -2.2154 C   0  0  0  0  0  0  0  0  0  0  0  0
    2.4701    2.0724   -3.5533 C   0  0  0  0  0  0  0  0  0  0  0  0
    3.4618   -1.5533    3.4729 F   0  0  0  0  0  0  0  0  0  0  0  0
    2.5397    7.4232   -7.9479 H   0  0  0  0  0  0  0  0  0  0  0  0
    1.7046    6.9351   -9.4383 H   0  0  0  0  0  0  0  0  0  0  0  0
    0.7831    7.2399   -7.9614 H   0  0  0  0  0  0  0  0  0  0  0  0
    1.9183    5.2633   -6.8858 H   0  0  0  0  0  0  0  0  0  0  0  0
    4.2059    5.0044   -6.9173 H   0  0  0  0  0  0  0  0  0  0  0  0
    4.9644    4.4750   -8.4432 H   0  0  0  0  0  0  0  0  0  0  0  0
    4.4742    6.1718   -8.2405 H   0  0  0  0  0  0  0  0  0  0  0  0
   -1.1143    4.5723  -11.1944 H   0  0  0  0  0  0  0  0  0  0  0  0
   -2.3689    2.7932   -9.9516 H   0  0  0  0  0  0  0  0  0  0  0  0
   -1.5838    2.1902   -7.6648 H   0  0  0  0  0  0  0  0  0  0  0  0
   -1.9957    4.2538   -6.1994 H   0  0  0  0  0  0  0  0  0  0  0  0
   -2.1013    4.1015   -4.4360 H   0  0  0  0  0  0  0  0  0  0  0  0
   -0.5477    6.0634   -4.2016 H   0  0  0  0  0  0  0  0  0  0  0  0
   -0.4976    6.2185   -5.9607 H   0  0  0  0  0  0  0  0  0  0  0  0
   -2.0130    6.4954   -5.0937 H   0  0  0  0  0  0  0  0  0  0  0  0
    2.6901    2.6252   -7.7756 H   0  0  0  0  0  0  0  0  0  0  0  0
    3.6580    2.1412   -6.3779 H   0  0  0  0  0  0  0  0  0  0  0  0
    0.3719    0.4351   -6.8094 H   0  0  0  0  0  0  0  0  0  0  0  0
    0.7558    0.9233   -8.4642 H   0  0  0  0  0  0  0  0  0  0  0  0
    0.9409   -0.7622   -7.9739 H   0  0  0  0  0  0  0  0  0  0  0  0
    4.4538    0.4384   -8.1457 H   0  0  0  0  0  0  0  0  0  0  0  0
    3.3365   -0.8119   -8.6929 H   0  0  0  0  0  0  0  0  0  0  0  0
    3.1589    0.8459   -9.2754 H   0  0  0  0  0  0  0  0  0  0  0  0
    2.2514   -0.1014   -5.1747 H   0  0  0  0  0  0  0  0  0  0  0  0
    2.6538   -1.4045   -6.3086 H   0  0  0  0  0  0  0  0  0  0  0  0
    6.1403    0.4779   -3.7988 H   0  0  0  0  0  0  0  0  0  0  0  0
    6.1585   -2.0153   -2.9260 H   0  0  0  0  0  0  0  0  0  0  0  0
    5.9772   -0.6787   -1.5524 H   0  0  0  0  0  0  0  0  0  0  0  0
    7.4206   -0.9631    0.9461 H   0  0  0  0  0  0  0  0  0  0  0  0
    7.6030   -3.0063    1.8173 H   0  0  0  0  0  0  0  0  0  0  0  0
    5.9729   -5.1657    0.4114 H   0  0  0  0  0  0  0  0  0  0  0  0
    5.6631   -5.3846    2.8760 H   0  0  0  0  0  0  0  0  0  0  0  0
    6.7482   -6.6402    2.2835 H   0  0  0  0  0  0  0  0  0  0  0  0
    7.4039   -5.2288    3.1156 H   0  0  0  0  0  0  0  0  0  0  0  0
    8.1731   -6.2569    0.2506 H   0  0  0  0  0  0  0  0  0  0  0  0
    8.1941   -4.6758   -0.5295 H   0  0  0  0  0  0  0  0  0  0  0  0
    8.9360   -4.8867    1.0610 H   0  0  0  0  0  0  0  0  0  0  0  0
    4.5929   -3.3155    5.0354 H   0  0  0  0  0  0  0  0  0  0  0  0
    5.8623   -2.2281    5.6286 H   0  0  0  0  0  0  0  0  0  0  0  0
    2.8369   -1.8660    5.9560 H   0  0  0  0  0  0  0  0  0  0  0  0
    3.9947   -2.2552    7.2580 H   0  0  0  0  0  0  0  0  0  0  0  0
    6.2785    3.2128    6.0188 H   0  0  0  0  0  0  0  0  0  0  0  0
    5.5781    4.8357    5.8017 H   0  0  0  0  0  0  0  0  0  0  0  0
    7.3217    4.6449    5.9146 H   0  0  0  0  0  0  0  0  0  0  0  0
    7.5969    4.2525    9.3743 H   0  0  0  0  0  0  0  0  0  0  0  0
    7.4617    2.7983    8.3550 H   0  0  0  0  0  0  0  0  0  0  0  0
    8.3816    4.2119    7.8021 H   0  0  0  0  0  0  0  0  0  0  0  0
    3.0115    4.8185    8.3382 H   0  0  0  0  0  0  0  0  0  0  0  0
    4.1867    5.9783    7.6991 H   0  0  0  0  0  0  0  0  0  0  0  0
    3.6712    4.5876    6.7278 H   0  0  0  0  0  0  0  0  0  0  0  0
    5.7376    3.7242   10.3913 H   0  0  0  0  0  0  0  0  0  0  0  0
    5.4614    5.4371   10.0154 H   0  0  0  0  0  0  0  0  0  0  0  0
    4.0977    4.3389   10.2772 H   0  0  0  0  0  0  0  0  0  0  0  0
    2.9720    0.4314    4.9798 H   0  0  0  0  0  0  0  0  0  0  0  0
    4.1894    1.5423    5.6506 H   0  0  0  0  0  0  0  0  0  0  0  0
    6.0089    0.1579    4.6470 H   0  0  0  0  0  0  0  0  0  0  0  0
    4.8547    0.6293    3.3905 H   0  0  0  0  0  0  0  0  0  0  0  0
    3.6654   -3.7073    2.4274 H   0  0  0  0  0  0  0  0  0  0  0  0
    3.7131   -2.3679    1.2618 H   0  0  0  0  0  0  0  0  0  0  0  0
    4.3525   -3.9425    0.8122 H   0  0  0  0  0  0  0  0  0  0  0  0
    7.2358    1.1970    0.4299 H   0  0  0  0  0  0  0  0  0  0  0  0
    7.0496    1.7882   -1.2172 H   0  0  0  0  0  0  0  0  0  0  0  0
    5.1363    2.4079    0.2453 H   0  0  0  0  0  0  0  0  0  0  0  0
    4.7617    2.2351   -2.1571 H   0  0  0  0  0  0  0  0  0  0  0  0
    4.4051    0.4822   -2.0208 H   0  0  0  0  0  0  0  0  0  0  0  0
    1.4266    1.0177   -0.0069 H   0  0  0  0  0  0  0  0  0  0  0  0
    2.4828   -0.2158   -0.7412 H   0  0  0  0  0  0  0  0  0  0  0  0
    3.2574    1.7390    1.4869 H   0  0  0  0  0  0  0  0  0  0  0  0
    2.9739   -0.0185    1.6775 H   0  0  0  0  0  0  0  0  0  0  0  0
    9.8834   -0.6578   -3.7095 H   0  0  0  0  0  0  0  0  0  0  0  0
    9.0469   -1.9561   -4.6127 H   0  0  0  0  0  0  0  0  0  0  0  0
    8.4413    1.0401   -4.7080 H   0  0  0  0  0  0  0  0  0  0  0  0
    9.0988    0.0698   -6.0310 H   0  0  0  0  0  0  0  0  0  0  0  0
    7.0012   -1.2181   -6.1833 H   0  0  0  0  0  0  0  0  0  0  0  0
    6.6045    0.5088   -6.2483 H   0  0  0  0  0  0  0  0  0  0  0  0
   -0.8511    3.8169   -2.4722 H   0  0  0  0  0  0  0  0  0  0  0  0
    0.7106    2.9440   -0.8000 H   0  0  0  0  0  0  0  0  0  0  0  0
    3.3930    1.6072   -3.8595 H   0  0  0  0  0  0  0  0  0  0  0  0
  1  2  1  0  0  0  0
  2  3  1  0  0  0  0
  3  4  1  0  0  0  0
  2  5  1  0  0  0  0
  5  6  4  0  0  0  0
  6  7  4  0  0  0  0
  7  8  4  0  0  0  0
  8  9  4  0  0  0  0
  5 10  4  0  0  0  0
  9 10  4  0  0  0  0
 10 11  1  0  0  0  0
 11 12  1  0  0  0  0
 12 13  1  0  0  0  0
 13 14  1  0  0  0  0
 11 15  2  0  0  0  0
 15 16  1  0  0  0  0
 16 17  1  0  0  0  0
 17 18  1  0  0  0  0
 17 19  1  0  0  0  0
 17 20  1  0  0  0  0
 20 21  1  0  0  0  0
 21 22  1  0  0  0  0
 22 23  1  0  0  0  0
 23 24  1  0  0  0  0
 24 25  1  0  0  0  0
 25 26  4  0  0  0  0
 26 27  1  0  0  0  0
 27 28  1  0  0  0  0
 28 29  4  0  0  0  0
 29 30  1  0  0  0  0
 30 31  1  0  0  0  0
 31 32  1  0  0  0  0
 31 33  1  0  0  0  0
 30 34  1  0  0  0  0
 34 35  4  0  0  0  0
 35 36  1  0  0  0  0
 36 37  1  0  0  0  0
 37 38  1  0  0  0  0
 38 39  1  0  0  0  0
 39 40  4  0  0  0  0
 40 41  1  0  0  0  0
 41 42  3  0  0  0  0
 42 43  1  0  0  0  0
 43 44  1  0  0  0  0
 44 45  1  0  0  0  0
 44 46  1  0  0  0  0
 43 47  1  0  0  0  0
 43 48  1  0  0  0  0
 40 49  2  0  0  0  0
 39 50  1  0  0  0  0
 36 51  1  0  0  0  0
 50 51  1  0  0  0  0
 35 52  2  0  0  0  0
 34 53  1  0  0  0  0
 29 54  2  0  0  0  0
 27 55  1  0  0  0  0
 55 56  1  0  0  0  0
 56 57  1  0  0  0  0
 57 58  1  0  0  0  0
 58 59  1  0  0  0  0
 59 60  1  0  0  0  0
 56 61  1  0  0  0  0
 60 61  1  0  0  0  0
 26 62  2  0  0  0  0
 25 63  1  0  0  0  0
 63 64  1  0  0  0  0
 23 65  1  0  0  0  0
 64 65  1  0  0  0  0
 22 66  2  0  0  0  0
 15 67  4  0  0  0  0
 12 68  1  0  0  0  0
 67 68  4  0  0  0  0
 68 69  4  0  0  0  0
 69 70  2  0  0  0  0
 58 71  1  0  0  0  0
 70 71  4  0  0  0  0
 67 72  4  0  0  0  0
 71 72  4  0  0  0  0
 36 73  1  0  0  0  0
  1 74  1  0  0  0  0
  1 75  1  0  0  0  0
  1 76  1  0  0  0  0
  2 77  1  0  0  0  0
  4 78  1  0  0  0  0
  4 79  1  0  0  0  0
  4 80  1  0  0  0  0
  7 81  1  0  0  0  0
  8 82  1  0  0  0  0
  9 83  1  0  0  0  0
 13 84  1  0  0  0  0
 13 85  1  0  0  0  0
 14 86  1  0  0  0  0
 14 87  1  0  0  0  0
 14 88  1  0  0  0  0
 16 89  1  0  0  0  0
 16 90  1  0  0  0  0
 18 91  1  0  0  0  0
 18 92  1  0  0  0  0
 18 93  1  0  0  0  0
 19 94  1  0  0  0  0
 19 95  1  0  0  0  0
 19 96  1  0  0  0  0
 20 97  1  0  0  0  0
 20 98  1  0  0  0  0
 23 99  1  0  0  0  0
 24100  1  0  0  0  0
 27101  1  0  0  0  0
 28102  1  0  0  0  0
 30103  1  0  0  0  0
 31104  1  0  0  0  0
 32105  1  0  0  0  0
 32106  1  0  0  0  0
 32107  1  0  0  0  0
 33108  1  0  0  0  0
 33109  1  0  0  0  0
 33110  1  0  0  0  0
 37111  1  0  0  0  0
 37112  1  0  0  0  0
 38113  1  0  0  0  0
 38114  1  0  0  0  0
 45115  1  0  0  0  0
 45116  1  0  0  0  0
 45117  1  0  0  0  0
 46118  1  0  0  0  0
 46119  1  0  0  0  0
 46120  1  0  0  0  0
 47121  1  0  0  0  0
 47122  1  0  0  0  0
 47123  1  0  0  0  0
 48124  1  0  0  0  0
 48125  1  0  0  0  0
 48126  1  0  0  0  0
 50127  1  0  0  0  0
 50128  1  0  0  0  0
 51129  1  0  0  0  0
 51130  1  0  0  0  0
 53131  1  0  0  0  0
 53132  1  0  0  0  0
 53133  1  0  0  0  0
 55134  1  0  0  0  0
 55135  1  0  0  0  0
 56136  1  0  0  0  0
 57137  1  0  0  0  0
 57138  1  0  0  0  0
 59139  1  0  0  0  0
 59140  1  0  0  0  0
 60141  1  0  0  0  0
 60142  1  0  0  0  0
 63143  1  0  0  0  0
 63144  1  0  0  0  0
 64145  1  0  0  0  0
 64146  1  0  0  0  0
 65147  1  0  0  0  0
 65148  1  0  0  0  0
 69149  1  0  0  0  0
 70150  1  0  0  0  0
 72151  1  0  0  0  0
M  END
$$$$
