 xtb: 6.7.1 (edcfbbe)
          08072518233D

151157  0     0  0            999 V2000
   14.4065   23.1407   61.3294 C   0  0  0  0  0  0  0  0  0  0  0  0
   14.1450   24.5567   60.8171 C   0  0  0  0  0  0  0  0  0  0  0  0
   14.5029   25.5541   61.7628 O   0  0  0  0  0  0  0  0  0  0  0  0
   15.8800   25.8099   61.8489 C   0  0  0  0  0  0  0  0  0  0  0  0
   12.6709   24.7617   60.5284 C   0  0  0  0  0  0  0  0  0  0  0  0
   11.8188   24.1168   61.3071 N   0  0  0  0  0  0  0  0  0  0  0  0
   10.5224   24.2574   61.1073 C   0  0  0  0  0  0  0  0  0  0  0  0
    9.9937   25.0425   60.0950 C   0  0  0  0  0  0  0  0  0  0  0  0
   10.8771   25.7174   59.2714 C   0  0  0  0  0  0  0  0  0  0  0  0
   12.2480   25.5994   59.4867 C   0  0  0  0  0  0  0  0  0  0  0  0
   13.2072   26.3016   58.6223 C   0  0  0  0  0  0  0  0  0  0  0  0
   13.4989   25.8141   57.3681 N   0  0  0  0  0  0  0  0  0  0  0  0
   12.9356   24.6411   56.7553 C   0  0  0  0  0  0  0  0  0  0  0  0
   11.8508   24.9910   55.7371 C   0  0  0  0  0  0  0  0  0  0  0  0
   13.9461   27.4325   58.8790 C   0  0  0  0  0  0  0  0  0  0  0  0
   13.8915   28.2463   60.1316 C   0  0  0  0  0  0  0  0  0  0  0  0
   12.9255   29.4544   60.0985 C   0  0  0  0  0  0  0  0  0  0  0  0
   11.5668   29.0627   59.5211 C   0  0  0  0  0  0  0  0  0  0  0  0
   12.7399   29.9701   61.5277 C   0  0  0  0  0  0  0  0  0  0  0  0
   13.5056   30.5775   59.2324 C   0  0  0  0  0  0  0  0  0  0  0  0
   14.7167   31.0518   59.8276 O   0  0  0  0  0  0  0  0  0  0  0  0
   15.4405   31.9089   59.1245 C   0  0  0  0  0  0  0  0  0  0  0  0
   16.7361   32.2635   59.8396 C   0  0  0  0  0  0  0  0  0  0  0  0
   17.2023   33.5860   59.4564 N   0  0  0  0  0  0  0  0  0  0  0  0
   18.5435   33.7178   59.8302 N   0  0  0  0  0  0  0  0  0  0  0  0
   19.6029   33.2570   59.1219 C   0  0  0  0  0  0  0  0  0  0  0  0
   19.3337   32.9237   57.6420 C   0  0  0  0  0  0  0  0  0  0  0  0
   19.7329   34.0641   56.8493 N   0  0  0  0  0  0  0  0  0  0  0  0
   18.8510   35.0079   56.4889 C   0  0  0  0  0  0  0  0  0  0  0  0
   19.4752   36.0630   55.5695 C   0  0  0  0  0  0  0  0  0  0  0  0
   18.6407   37.3475   55.4923 C   0  0  0  0  0  0  0  0  0  0  0  0
   19.1600   38.2646   54.3887 C   0  0  0  0  0  0  0  0  0  0  0  0
   18.7072   38.0496   56.8477 C   0  0  0  0  0  0  0  0  0  0  0  0
   19.7113   35.4271   54.2683 N   0  0  0  0  0  0  0  0  0  0  0  0
   20.9628   34.9418   54.0739 C   0  0  0  0  0  0  0  0  0  0  0  0
   21.3714   34.3835   52.6946 C   0  0  0  0  0  0  0  0  0  0  0  0
   21.3023   35.4667   51.6100 C   0  0  0  0  0  0  0  0  0  0  0  0
   21.8300   34.9013   50.2856 C   0  0  0  0  0  0  0  0  0  0  0  0
   21.1117   33.7000   49.9422 N   0  0  0  0  0  0  0  0  0  0  0  0
   20.1753   33.6114   48.9638 C   0  0  0  0  0  0  0  0  0  0  0  0
   20.0944   34.7738   48.1115 C   0  0  0  0  0  0  0  0  0  0  0  0
   19.9532   35.6872   47.3410 C   0  0  0  0  0  0  0  0  0  0  0  0
   19.8200   36.8392   46.4532 C   0  0  0  0  0  0  0  0  0  0  0  0
   21.0018   37.6860   46.6639 N   0  0  0  0  0  0  0  0  0  0  0  0
   22.2579   37.0237   46.3742 C   0  0  0  0  0  0  0  0  0  0  0  0
   20.9613   38.9865   46.0319 C   0  0  0  0  0  0  0  0  0  0  0  0
   19.6473   36.3238   45.0107 C   0  0  0  0  0  0  0  0  0  0  0  0
   18.5452   37.5778   46.8922 C   0  0  0  0  0  0  0  0  0  0  0  0
   19.4748   32.6297   48.7942 O   0  0  0  0  0  0  0  0  0  0  0  0
   21.2524   32.6362   50.9098 C   0  0  0  0  0  0  0  0  0  0  0  0
   20.6880   33.0834   52.2621 C   0  0  0  0  0  0  0  0  0  0  0  0
   21.8191   35.0281   54.9362 O   0  0  0  0  0  0  0  0  0  0  0  0
   18.5195   34.9797   53.5779 C   0  0  0  0  0  0  0  0  0  0  0  0
   17.6763   34.9905   56.8087 O   0  0  0  0  0  0  0  0  0  0  0  0
   20.0805   31.6543   57.2238 C   0  0  0  0  0  0  0  0  0  0  0  0
   19.3124   30.8063   56.2068 C   0  0  0  0  0  0  0  0  0  0  0  0
   18.0060   30.2283   56.7771 C   0  0  0  0  0  0  0  0  0  0  0  0
   17.3807   29.4089   55.7608 N   0  0  0  0  0  0  0  0  0  0  0  0
   17.0965   30.2225   54.5908 C   0  0  0  0  0  0  0  0  0  0  0  0
   18.4093   30.8016   54.0692 C   0  0  0  0  0  0  0  0  0  0  0  0
   19.0542   31.5832   55.0501 O   0  0  0  0  0  0  0  0  0  0  0  0
   20.7228   33.1980   59.5936 O   0  0  0  0  0  0  0  0  0  0  0  0
   18.6293   33.8417   61.2747 C   0  0  0  0  0  0  0  0  0  0  0  0
   18.0601   32.5747   61.9238 C   0  0  0  0  0  0  0  0  0  0  0  0
   16.6662   32.2632   61.3701 C   0  0  0  0  0  0  0  0  0  0  0  0
   15.1606   32.3046   58.0226 O   0  0  0  0  0  0  0  0  0  0  0  0
   14.7582   27.6515   57.7238 C   0  0  0  0  0  0  0  0  0  0  0  0
   14.4412   26.6275   56.8010 C   0  0  0  0  0  0  0  0  0  0  0  0
   15.0706   26.5512   55.5639 C   0  0  0  0  0  0  0  0  0  0  0  0
   16.0151   27.5014   55.2613 C   0  0  0  0  0  0  0  0  0  0  0  0
   16.3569   28.5279   56.1629 C   0  0  0  0  0  0  0  0  0  0  0  0
   15.7345   28.5964   57.3970 C   0  0  0  0  0  0  0  0  0  0  0  0
   22.7218   34.0713   52.8405 F   0  0  0  0  0  0  0  0  0  0  0  0
   13.8544   22.9890   62.2515 H   0  0  0  0  0  0  0  0  0  0  0  0
   14.0686   22.4179   60.5919 H   0  0  0  0  0  0  0  0  0  0  0  0
   15.4674   22.9877   61.5097 H   0  0  0  0  0  0  0  0  0  0  0  0
   14.7161   24.7286   59.8882 H   0  0  0  0  0  0  0  0  0  0  0  0
   15.9886   26.6559   62.5253 H   0  0  0  0  0  0  0  0  0  0  0  0
   16.4349   24.9565   62.2529 H   0  0  0  0  0  0  0  0  0  0  0  0
   16.2947   26.0718   60.8669 H   0  0  0  0  0  0  0  0  0  0  0  0
    9.8843   23.7050   61.7846 H   0  0  0  0  0  0  0  0  0  0  0  0
    8.9272   25.1225   59.9532 H   0  0  0  0  0  0  0  0  0  0  0  0
   10.5120   26.3413   58.4679 H   0  0  0  0  0  0  0  0  0  0  0  0
   13.7405   24.0887   56.2591 H   0  0  0  0  0  0  0  0  0  0  0  0
   12.5185   24.0066   57.5426 H   0  0  0  0  0  0  0  0  0  0  0  0
   11.0153   25.4863   56.2248 H   0  0  0  0  0  0  0  0  0  0  0  0
   12.2494   25.6572   54.9760 H   0  0  0  0  0  0  0  0  0  0  0  0
   11.4862   24.0870   55.2569 H   0  0  0  0  0  0  0  0  0  0  0  0
   13.5871   27.5911   60.9496 H   0  0  0  0  0  0  0  0  0  0  0  0
   14.8904   28.6254   60.3577 H   0  0  0  0  0  0  0  0  0  0  0  0
   11.1325   28.2606   60.1117 H   0  0  0  0  0  0  0  0  0  0  0  0
   10.8874   29.9122   59.5388 H   0  0  0  0  0  0  0  0  0  0  0  0
   11.6702   28.7264   58.4924 H   0  0  0  0  0  0  0  0  0  0  0  0
   13.6976   30.2499   61.9576 H   0  0  0  0  0  0  0  0  0  0  0  0
   12.0907   30.8431   61.5365 H   0  0  0  0  0  0  0  0  0  0  0  0
   12.2915   29.1993   62.1495 H   0  0  0  0  0  0  0  0  0  0  0  0
   13.7176   30.2242   58.2182 H   0  0  0  0  0  0  0  0  0  0  0  0
   12.8042   31.4162   59.1619 H   0  0  0  0  0  0  0  0  0  0  0  0
   17.4572   31.4775   59.5275 H   0  0  0  0  0  0  0  0  0  0  0  0
   17.0229   33.8595   58.4914 H   0  0  0  0  0  0  0  0  0  0  0  0
   18.2642   32.8023   57.4600 H   0  0  0  0  0  0  0  0  0  0  0  0
   20.7082   34.1579   56.5975 H   0  0  0  0  0  0  0  0  0  0  0  0
   20.4654   36.3215   55.9593 H   0  0  0  0  0  0  0  0  0  0  0  0
   17.5932   37.0938   55.3048 H   0  0  0  0  0  0  0  0  0  0  0  0
   18.5942   39.1930   54.3782 H   0  0  0  0  0  0  0  0  0  0  0  0
   20.2076   38.5021   54.5617 H   0  0  0  0  0  0  0  0  0  0  0  0
   19.0721   37.7983   53.4109 H   0  0  0  0  0  0  0  0  0  0  0  0
   18.3241   37.3988   57.6288 H   0  0  0  0  0  0  0  0  0  0  0  0
   19.7325   38.3219   57.0896 H   0  0  0  0  0  0  0  0  0  0  0  0
   18.1049   38.9546   56.8295 H   0  0  0  0  0  0  0  0  0  0  0  0
   20.2768   35.8098   51.4812 H   0  0  0  0  0  0  0  0  0  0  0  0
   21.9176   36.3131   51.9183 H   0  0  0  0  0  0  0  0  0  0  0  0
   21.7176   35.6398   49.4904 H   0  0  0  0  0  0  0  0  0  0  0  0
   22.8912   34.6539   50.3989 H   0  0  0  0  0  0  0  0  0  0  0  0
   23.0597   37.5807   46.8610 H   0  0  0  0  0  0  0  0  0  0  0  0
   22.2446   36.0129   46.7769 H   0  0  0  0  0  0  0  0  0  0  0  0
   22.4822   36.9734   45.2983 H   0  0  0  0  0  0  0  0  0  0  0  0
   21.8418   39.5415   46.3559 H   0  0  0  0  0  0  0  0  0  0  0  0
   20.9770   38.9406   44.9322 H   0  0  0  0  0  0  0  0  0  0  0  0
   20.0814   39.5378   46.3519 H   0  0  0  0  0  0  0  0  0  0  0  0
   20.4984   35.7164   44.7129 H   0  0  0  0  0  0  0  0  0  0  0  0
   18.7514   35.7118   44.9472 H   0  0  0  0  0  0  0  0  0  0  0  0
   19.5481   37.1604   44.3227 H   0  0  0  0  0  0  0  0  0  0  0  0
   18.7171   38.0822   47.8398 H   0  0  0  0  0  0  0  0  0  0  0  0
   18.2394   38.3046   46.1444 H   0  0  0  0  0  0  0  0  0  0  0  0
   17.7386   36.8596   47.0206 H   0  0  0  0  0  0  0  0  0  0  0  0
   20.7048   31.7679   50.5387 H   0  0  0  0  0  0  0  0  0  0  0  0
   22.3132   32.3859   51.0087 H   0  0  0  0  0  0  0  0  0  0  0  0
   20.8678   32.3200   53.0196 H   0  0  0  0  0  0  0  0  0  0  0  0
   19.6174   33.2280   52.1583 H   0  0  0  0  0  0  0  0  0  0  0  0
   17.6845   35.5974   53.8968 H   0  0  0  0  0  0  0  0  0  0  0  0
   18.6168   35.0762   52.4986 H   0  0  0  0  0  0  0  0  0  0  0  0
   18.2878   33.9444   53.8420 H   0  0  0  0  0  0  0  0  0  0  0  0
   21.0427   31.9375   56.7949 H   0  0  0  0  0  0  0  0  0  0  0  0
   20.2819   31.0420   58.1043 H   0  0  0  0  0  0  0  0  0  0  0  0
   19.9467   29.9499   55.9162 H   0  0  0  0  0  0  0  0  0  0  0  0
   18.2438   29.6037   57.6409 H   0  0  0  0  0  0  0  0  0  0  0  0
   17.3385   31.0490   57.0840 H   0  0  0  0  0  0  0  0  0  0  0  0
   16.6281   29.6148   53.8177 H   0  0  0  0  0  0  0  0  0  0  0  0
   16.4170   31.0523   54.8509 H   0  0  0  0  0  0  0  0  0  0  0  0
   19.0712   29.9783   53.7596 H   0  0  0  0  0  0  0  0  0  0  0  0
   18.2254   31.4565   53.2160 H   0  0  0  0  0  0  0  0  0  0  0  0
   19.6759   33.9841   61.5428 H   0  0  0  0  0  0  0  0  0  0  0  0
   18.0431   34.7161   61.5635 H   0  0  0  0  0  0  0  0  0  0  0  0
   18.7320   31.7403   61.7083 H   0  0  0  0  0  0  0  0  0  0  0  0
   18.0154   32.7049   63.0050 H   0  0  0  0  0  0  0  0  0  0  0  0
   15.9618   33.0351   61.6817 H   0  0  0  0  0  0  0  0  0  0  0  0
   16.3168   31.2986   61.7373 H   0  0  0  0  0  0  0  0  0  0  0  0
   14.8405   25.7647   54.8610 H   0  0  0  0  0  0  0  0  0  0  0  0
   16.5339   27.4520   54.3164 H   0  0  0  0  0  0  0  0  0  0  0  0
   15.9937   29.3623   58.1101 H   0  0  0  0  0  0  0  0  0  0  0  0
  1  2  1  0  0  0  0
  2  3  1  0  0  0  0
  3  4  1  0  0  0  0
  2  5  1  0  0  0  0
  5  6  4  0  0  0  0
  6  7  4  0  0  0  0
  7  8  4  0  0  0  0
  8  9  4  0  0  0  0
  5 10  4  0  0  0  0
  9 10  4  0  0  0  0
 10 11  1  0  0  0  0
 11 12  1  0  0  0  0
 12 13  1  0  0  0  0
 13 14  1  0  0  0  0
 11 15  2  0  0  0  0
 15 16  1  0  0  0  0
 16 17  1  0  0  0  0
 17 18  1  0  0  0  0
 17 19  1  0  0  0  0
 17 20  1  0  0  0  0
 20 21  1  0  0  0  0
 21 22  1  0  0  0  0
 22 23  1  0  0  0  0
 23 24  1  0  0  0  0
 24 25  1  0  0  0  0
 25 26  4  0  0  0  0
 26 27  1  0  0  0  0
 27 28  1  0  0  0  0
 28 29  4  0  0  0  0
 29 30  1  0  0  0  0
 30 31  1  0  0  0  0
 31 32  1  0  0  0  0
 31 33  1  0  0  0  0
 30 34  1  0  0  0  0
 34 35  4  0  0  0  0
 35 36  1  0  0  0  0
 36 37  1  0  0  0  0
 37 38  1  0  0  0  0
 38 39  1  0  0  0  0
 39 40  4  0  0  0  0
 40 41  1  0  0  0  0
 41 42  3  0  0  0  0
 42 43  1  0  0  0  0
 43 44  1  0  0  0  0
 44 45  1  0  0  0  0
 44 46  1  0  0  0  0
 43 47  1  0  0  0  0
 43 48  1  0  0  0  0
 40 49  2  0  0  0  0
 39 50  1  0  0  0  0
 36 51  1  0  0  0  0
 50 51  1  0  0  0  0
 35 52  2  0  0  0  0
 34 53  1  0  0  0  0
 29 54  2  0  0  0  0
 27 55  1  0  0  0  0
 55 56  1  0  0  0  0
 56 57  1  0  0  0  0
 57 58  1  0  0  0  0
 58 59  1  0  0  0  0
 59 60  1  0  0  0  0
 56 61  1  0  0  0  0
 60 61  1  0  0  0  0
 26 62  2  0  0  0  0
 25 63  1  0  0  0  0
 63 64  1  0  0  0  0
 23 65  1  0  0  0  0
 64 65  1  0  0  0  0
 22 66  2  0  0  0  0
 15 67  4  0  0  0  0
 12 68  1  0  0  0  0
 67 68  4  0  0  0  0
 68 69  4  0  0  0  0
 69 70  2  0  0  0  0
 58 71  1  0  0  0  0
 70 71  4  0  0  0  0
 67 72  4  0  0  0  0
 71 72  4  0  0  0  0
 36 73  1  0  0  0  0
  1 74  1  0  0  0  0
  1 75  1  0  0  0  0
  1 76  1  0  0  0  0
  2 77  1  0  0  0  0
  4 78  1  0  0  0  0
  4 79  1  0  0  0  0
  4 80  1  0  0  0  0
  7 81  1  0  0  0  0
  8 82  1  0  0  0  0
  9 83  1  0  0  0  0
 13 84  1  0  0  0  0
 13 85  1  0  0  0  0
 14 86  1  0  0  0  0
 14 87  1  0  0  0  0
 14 88  1  0  0  0  0
 16 89  1  0  0  0  0
 16 90  1  0  0  0  0
 18 91  1  0  0  0  0
 18 92  1  0  0  0  0
 18 93  1  0  0  0  0
 19 94  1  0  0  0  0
 19 95  1  0  0  0  0
 19 96  1  0  0  0  0
 20 97  1  0  0  0  0
 20 98  1  0  0  0  0
 23 99  1  0  0  0  0
 24100  1  0  0  0  0
 27101  1  0  0  0  0
 28102  1  0  0  0  0
 30103  1  0  0  0  0
 31104  1  0  0  0  0
 32105  1  0  0  0  0
 32106  1  0  0  0  0
 32107  1  0  0  0  0
 33108  1  0  0  0  0
 33109  1  0  0  0  0
 33110  1  0  0  0  0
 37111  1  0  0  0  0
 37112  1  0  0  0  0
 38113  1  0  0  0  0
 38114  1  0  0  0  0
 45115  1  0  0  0  0
 45116  1  0  0  0  0
 45117  1  0  0  0  0
 46118  1  0  0  0  0
 46119  1  0  0  0  0
 46120  1  0  0  0  0
 47121  1  0  0  0  0
 47122  1  0  0  0  0
 47123  1  0  0  0  0
 48124  1  0  0  0  0
 48125  1  0  0  0  0
 48126  1  0  0  0  0
 50127  1  0  0  0  0
 50128  1  0  0  0  0
 51129  1  0  0  0  0
 51130  1  0  0  0  0
 53131  1  0  0  0  0
 53132  1  0  0  0  0
 53133  1  0  0  0  0
 55134  1  0  0  0  0
 55135  1  0  0  0  0
 56136  1  0  0  0  0
 57137  1  0  0  0  0
 57138  1  0  0  0  0
 59139  1  0  0  0  0
 59140  1  0  0  0  0
 60141  1  0  0  0  0
 60142  1  0  0  0  0
 63143  1  0  0  0  0
 63144  1  0  0  0  0
 64145  1  0  0  0  0
 64146  1  0  0  0  0
 65147  1  0  0  0  0
 65148  1  0  0  0  0
 69149  1  0  0  0  0
 70150  1  0  0  0  0
 72151  1  0  0  0  0
M  END
