mol_ETKDG2_14
  PyMOL3.1          3D                             0

 73 79  0  0  0  0  0  0  0  0999 V2000
    4.3633    8.0011   -6.6623 C   0  0  0  0  0  0  0  0  0  0  0  0
    4.0243    6.5628   -6.9767 C   0  0  0  0  0  0  0  0  0  0  0  0
    5.0749    5.8667   -7.5802 O   0  0  0  0  0  0  0  0  0  0  0  0
    5.0255    5.4700   -8.9171 C   0  0  0  0  0  0  0  0  0  0  0  0
    2.7712    6.4096   -7.7519 C   0  0  0  0  0  0  0  0  0  0  0  0
    2.6556    7.0541   -8.9032 N   0  0  0  0  0  0  0  0  0  0  0  0
    1.5370    6.9737   -9.6266 C   0  0  0  0  0  0  0  0  0  0  0  0
    0.4597    6.2225   -9.1767 C   0  0  0  0  0  0  0  0  0  0  0  0
    0.5726    5.5478   -7.9853 C   0  0  0  0  0  0  0  0  0  0  0  0
    1.7529    5.6468   -7.2660 C   0  0  0  0  0  0  0  0  0  0  0  0
    1.8812    4.9390   -6.0108 C   0  0  0  0  0  0  0  0  0  0  0  0
    1.3440    5.3682   -4.8463 N   0  0  0  0  0  0  0  0  0  0  0  0
    0.6005    6.6047   -4.6116 C   0  0  0  0  0  0  0  0  0  0  0  0
   -0.9039    6.3274   -4.6100 C   0  0  0  0  0  0  0  0  0  0  0  0
    2.6034    3.7636   -5.7958 C   0  0  0  0  0  0  0  0  0  0  0  0
    3.4707    3.0431   -6.7736 C   0  0  0  0  0  0  0  0  0  0  0  0
    2.8055    1.8568   -7.5575 C   0  0  0  0  0  0  0  0  0  0  0  0
    3.4918    1.6756   -8.9385 C   0  0  0  0  0  0  0  0  0  0  0  0
    1.3112    2.0552   -7.7466 C   0  0  0  0  0  0  0  0  0  0  0  0
    2.9686    0.6433   -6.8087 C   0  0  0  0  0  0  0  0  0  0  0  0
    4.3168    0.4557   -6.2130 O   0  0  0  0  0  0  0  0  0  0  0  0
    4.6597   -0.6448   -5.4576 C   0  0  0  0  0  0  0  0  0  0  0  0
    6.0787   -0.6255   -4.9915 C   0  0  0  0  0  0  0  0  0  0  0  0
    6.2248   -1.6698   -3.9983 N   0  0  0  0  0  0  0  0  0  0  0  0
    7.5036   -1.8084   -3.5420 N   0  0  0  0  0  0  0  0  0  0  0  0
    7.8370   -1.4996   -2.2535 C   0  0  0  0  0  0  0  0  0  0  0  0
    6.7219   -1.1580   -1.2937 C   0  0  0  0  0  0  0  0  0  0  0  0
    7.0185   -1.5444    0.0617 N   0  0  0  0  0  0  0  0  0  0  0  0
    6.7071   -2.7285    0.5815 C   0  0  0  0  0  0  0  0  0  0  0  0
    7.0831   -2.8821    2.0226 C   0  0  0  0  0  0  0  0  0  0  0  0
    7.9544   -4.1297    2.3355 C   0  0  0  0  0  0  0  0  0  0  0  0
    8.1890   -4.2257    3.8453 C   0  0  0  0  0  0  0  0  0  0  0  0
    9.3185   -4.0167    1.6375 C   0  0  0  0  0  0  0  0  0  0  0  0
    5.8823   -2.9246    2.8338 N   0  0  0  0  0  0  0  0  0  0  0  0
    5.6410   -1.8762    3.6334 C   0  0  0  0  0  0  0  0  0  0  0  0
    4.5991   -1.9923    4.7219 C   0  0  0  0  0  0  0  0  0  0  0  0
    5.1746   -2.9278    5.7623 C   0  0  0  0  0  0  0  0  0  0  0  0
    4.2534   -3.0939    6.9270 C   0  0  0  0  0  0  0  0  0  0  0  0
    4.1376   -1.7776    7.4732 N   0  0  0  0  0  0  0  0  0  0  0  0
    4.8643   -1.5292    8.6101 C   0  0  0  0  0  0  0  0  0  0  0  0
    5.4383   -0.2495    8.7957 C   0  0  0  0  0  0  0  0  0  0  0  0
    5.3974    0.8098    9.2603 C   0  0  0  0  0  0  0  0  0  0  0  0
    6.3580    1.9713    9.1972 C   0  0  0  0  0  0  0  0  0  0  0  0
    7.6660    1.6362    9.8151 N   0  0  0  0  0  0  0  0  0  0  0  0
    8.4171    0.5420    9.2017 C   0  0  0  0  0  0  0  0  0  0  0  0
    7.7737    1.6866   11.2591 C   0  0  0  0  0  0  0  0  0  0  0  0
    6.6271    2.4022    7.7345 C   0  0  0  0  0  0  0  0  0  0  0  0
    5.7247    3.1503    9.9291 C   0  0  0  0  0  0  0  0  0  0  0  0
    5.0904   -2.3824    9.4395 O   0  0  0  0  0  0  0  0  0  0  0  0
    3.4727   -0.8205    6.5934 C   0  0  0  0  0  0  0  0  0  0  0  0
    4.3067   -0.6405    5.3702 C   0  0  0  0  0  0  0  0  0  0  0  0
    6.2804   -0.8331    3.5189 O   0  0  0  0  0  0  0  0  0  0  0  0
    5.0439   -4.1326    2.7376 C   0  0  0  0  0  0  0  0  0  0  0  0
    6.1325   -3.5989   -0.0602 O   0  0  0  0  0  0  0  0  0  0  0  0
    6.5263    0.3531   -1.2871 C   0  0  0  0  0  0  0  0  0  0  0  0
    5.2098    0.7609   -0.7385 C   0  0  0  0  0  0  0  0  0  0  0  0
    4.1909    0.6565   -1.8471 C   0  0  0  0  0  0  0  0  0  0  0  0
    3.0356    1.4051   -1.4259 N   0  0  0  0  0  0  0  0  0  0  0  0
    2.4721    0.9486   -0.1736 C   0  0  0  0  0  0  0  0  0  0  0  0
    3.5498    0.7092    0.9119 C   0  0  0  0  0  0  0  0  0  0  0  0
    4.7065    0.0231    0.3489 O   0  0  0  0  0  0  0  0  0  0  0  0
    8.9835   -1.4198   -1.8895 O   0  0  0  0  0  0  0  0  0  0  0  0
    8.4941   -2.1705   -4.5637 C   0  0  0  0  0  0  0  0  0  0  0  0
    8.4512   -1.0441   -5.6250 C   0  0  0  0  0  0  0  0  0  0  0  0
    7.0539   -0.8560   -6.1564 C   0  0  0  0  0  0  0  0  0  0  0  0
    3.9561   -1.6205   -5.1311 O   0  0  0  0  0  0  0  0  0  0  0  0
    2.4323    3.4794   -4.4230 C   0  0  0  0  0  0  0  0  0  0  0  0
    1.6355    4.4839   -3.8676 C   0  0  0  0  0  0  0  0  0  0  0  0
    1.3264    4.4560   -2.4940 C   0  0  0  0  0  0  0  0  0  0  0  0
    1.8092    3.4353   -1.7040 C   0  0  0  0  0  0  0  0  0  0  0  0
    2.5780    2.4301   -2.2503 C   0  0  0  0  0  0  0  0  0  0  0  0
    2.9214    2.4475   -3.6220 C   0  0  0  0  0  0  0  0  0  0  0  0
    3.3931   -2.4390    4.2126 F   0  0  0  0  0  0  0  0  0  0  0  0
  1  2  1  0  0  0  0
  2  3  1  0  0  0  0
  2  5  1  0  0  0  0
  3  4  1  0  0  0  0
  5  6  4  0  0  0  0
  5 10  4  0  0  0  0
  6  7  4  0  0  0  0
  7  8  4  0  0  0  0
  8  9  4  0  0  0  0
  9 10  4  0  0  0  0
 10 11  1  0  0  0  0
 11 12  4  0  0  0  0
 11 15  4  0  0  0  0
 12 13  1  0  0  0  0
 12 68  4  0  0  0  0
 13 14  1  0  0  0  0
 15 16  1  0  0  0  0
 15 67  4  0  0  0  0
 16 17  1  0  0  0  0
 17 18  1  0  0  0  0
 17 19  1  0  0  0  0
 17 20  1  0  0  0  0
 20 21  1  0  0  0  0
 21 22  1  0  0  0  0
 22 23  1  0  0  0  0
 22 66  2  0  0  0  0
 23 24  1  0  0  0  0
 23 65  1  0  0  0  0
 24 25  1  0  0  0  0
 25 26  1  0  0  0  0
 25 63  1  0  0  0  0
 26 27  1  0  0  0  0
 26 62  2  0  0  0  0
 27 28  1  0  0  0  0
 27 55  1  0  0  0  0
 28 29  1  0  0  0  0
 29 30  1  0  0  0  0
 29 54  2  0  0  0  0
 30 31  1  0  0  0  0
 30 34  1  0  0  0  0
 31 32  1  0  0  0  0
 31 33  1  0  0  0  0
 34 35  1  0  0  0  0
 34 53  1  0  0  0  0
 35 36  1  0  0  0  0
 35 52  2  0  0  0  0
 36 37  1  0  0  0  0
 36 51  1  0  0  0  0
 36 73  1  0  0  0  0
 37 38  1  0  0  0  0
 38 39  1  0  0  0  0
 39 40  1  0  0  0  0
 39 50  1  0  0  0  0
 40 41  1  0  0  0  0
 40 49  2  0  0  0  0
 41 42  1  0  0  0  0
 42 43  1  0  0  0  0
 43 44  1  0  0  0  0
 43 47  1  0  0  0  0
 43 48  1  0  0  0  0
 44 45  1  0  0  0  0
 44 46  1  0  0  0  0
 50 51  1  0  0  0  0
 55 56  1  0  0  0  0
 56 57  1  0  0  0  0
 56 61  1  0  0  0  0
 57 58  1  0  0  0  0
 58 59  1  0  0  0  0
 58 71  1  0  0  0  0
 59 60  1  0  0  0  0
 60 61  1  0  0  0  0
 63 64  1  0  0  0  0
 64 65  1  0  0  0  0
 67 68  4  0  0  0  0
 67 72  4  0  0  0  0
 68 69  4  0  0  0  0
 69 70  4  0  0  0  0
 70 71  4  0  0  0  0
 71 72  4  0  0  0  0
M  END
$$$$
