mol_bioactive_2
  PyMOL3.1          3D                             0

 73 79  0  0  0  0  0  0  0  0999 V2000
    2.2081    7.2657   -7.9859 C   0  0  0  0  0  0  0  0  0  0  0  0
    2.2702    5.7586   -7.7510 C   0  0  0  0  0  0  0  0  0  0  0  0
    3.4166    5.2108   -8.3341 O   0  0  0  0  0  0  0  0  0  0  0  0
    4.6628    5.4728   -7.7055 C   0  0  0  0  0  0  0  0  0  0  0  0
    1.1112    5.0781   -8.3607 C   0  0  0  0  0  0  0  0  0  0  0  0
    0.8227    5.4217   -9.6043 N   0  0  0  0  0  0  0  0  0  0  0  0
   -0.2541    4.9292  -10.2210 C   0  0  0  0  0  0  0  0  0  0  0  0
   -1.1065    4.0391   -9.5721 C   0  0  0  0  0  0  0  0  0  0  0  0
   -0.8057    3.6587   -8.2929 C   0  0  0  0  0  0  0  0  0  0  0  0
    0.3198    4.1622   -7.6888 C   0  0  0  0  0  0  0  0  0  0  0  0
    0.6597    3.6947   -6.3586 C   0  0  0  0  0  0  0  0  0  0  0  0
    0.0029    4.0509   -5.2212 N   0  0  0  0  0  0  0  0  0  0  0  0
   -1.1167    4.9866   -5.1034 C   0  0  0  0  0  0  0  0  0  0  0  0
   -0.6212    6.3638   -4.6294 C   0  0  0  0  0  0  0  0  0  0  0  0
    1.6848    2.8112   -6.0354 C   0  0  0  0  0  0  0  0  0  0  0  0
    2.7092    2.2325   -6.9562 C   0  0  0  0  0  0  0  0  0  0  0  0
    2.3142    0.8644   -7.6211 C   0  0  0  0  0  0  0  0  0  0  0  0
    0.8373    0.7544   -7.9609 C   0  0  0  0  0  0  0  0  0  0  0  0
    3.1441    0.6404   -8.9085 C   0  0  0  0  0  0  0  0  0  0  0  0
    2.5738   -0.2057   -6.7035 C   0  0  0  0  0  0  0  0  0  0  0  0
    3.9329   -0.2117   -6.1654 O   0  0  0  0  0  0  0  0  0  0  0  0
    4.4346   -1.2320   -5.3832 C   0  0  0  0  0  0  0  0  0  0  0  0
    5.8483   -1.0292   -4.9831 C   0  0  0  0  0  0  0  0  0  0  0  0
    6.1447   -1.9725   -3.9347 N   0  0  0  0  0  0  0  0  0  0  0  0
    7.4425   -1.9503   -3.5202 N   0  0  0  0  0  0  0  0  0  0  0  0
    7.7610   -1.5695   -2.2542 C   0  0  0  0  0  0  0  0  0  0  0  0
    6.6256   -1.2342   -1.3158 C   0  0  0  0  0  0  0  0  0  0  0  0
    6.9055   -1.5805    0.0614 N   0  0  0  0  0  0  0  0  0  0  0  0
    6.5935   -2.7568    0.6169 C   0  0  0  0  0  0  0  0  0  0  0  0
    6.9346   -2.8613    2.0720 C   0  0  0  0  0  0  0  0  0  0  0  0
    7.8347   -4.0739    2.4368 C   0  0  0  0  0  0  0  0  0  0  0  0
    8.0928   -4.0747    3.9443 C   0  0  0  0  0  0  0  0  0  0  0  0
    9.1776   -3.9782    1.7044 C   0  0  0  0  0  0  0  0  0  0  0  0
    5.7040   -2.9523    2.8329 N   0  0  0  0  0  0  0  0  0  0  0  0
    5.3802   -1.9164    3.6460 C   0  0  0  0  0  0  0  0  0  0  0  0
    4.2595   -2.0928    4.6388 C   0  0  0  0  0  0  0  0  0  0  0  0
    4.8115   -2.9768    5.7222 C   0  0  0  0  0  0  0  0  0  0  0  0
    3.7777   -3.2857    6.7580 C   0  0  0  0  0  0  0  0  0  0  0  0
    3.4677   -2.0154    7.3269 N   0  0  0  0  0  0  0  0  0  0  0  0
    4.0131   -1.7819    8.5687 C   0  0  0  0  0  0  0  0  0  0  0  0
    4.4561   -0.4994    8.9183 C   0  0  0  0  0  0  0  0  0  0  0  0
    4.3187    0.6406    9.0006 C   0  0  0  0  0  0  0  0  0  0  0  0
    5.2098    1.8173    9.3253 C   0  0  0  0  0  0  0  0  0  0  0  0
    6.6063    1.5855    8.9121 N   0  0  0  0  0  0  0  0  0  0  0  0
    6.7650    1.1192    7.5411 C   0  0  0  0  0  0  0  0  0  0  0  0
    7.4796    0.8881    9.8524 C   0  0  0  0  0  0  0  0  0  0  0  0
    5.1723    2.0757   10.8292 C   0  0  0  0  0  0  0  0  0  0  0  0
    4.7055    3.0642    8.6010 C   0  0  0  0  0  0  0  0  0  0  0  0
    4.2028   -2.6707    9.3685 O   0  0  0  0  0  0  0  0  0  0  0  0
    2.8256   -1.0887    6.4001 C   0  0  0  0  0  0  0  0  0  0  0  0
    3.7852   -0.7956    5.2745 C   0  0  0  0  0  0  0  0  0  0  0  0
    6.0095   -0.8726    3.6059 O   0  0  0  0  0  0  0  0  0  0  0  0
    4.9074   -4.1711    2.6849 C   0  0  0  0  0  0  0  0  0  0  0  0
    6.0578   -3.6453   -0.0155 O   0  0  0  0  0  0  0  0  0  0  0  0
    6.3921    0.2733   -1.3784 C   0  0  0  0  0  0  0  0  0  0  0  0
    5.0810    0.6935   -0.8256 C   0  0  0  0  0  0  0  0  0  0  0  0
    4.0341    0.5501   -1.9095 C   0  0  0  0  0  0  0  0  0  0  0  0
    2.8304    1.2091   -1.4507 N   0  0  0  0  0  0  0  0  0  0  0  0
    2.3474    0.7167   -0.1780 C   0  0  0  0  0  0  0  0  0  0  0  0
    3.4701    0.6229    0.8770 C   0  0  0  0  0  0  0  0  0  0  0  0
    4.6422   -0.0193    0.2932 O   0  0  0  0  0  0  0  0  0  0  0  0
    8.9043   -1.4278   -1.9043 O   0  0  0  0  0  0  0  0  0  0  0  0
    8.4446   -2.2463   -4.5632 C   0  0  0  0  0  0  0  0  0  0  0  0
    8.2247   -1.2160   -5.6820 C   0  0  0  0  0  0  0  0  0  0  0  0
    6.7960   -1.2476   -6.1672 C   0  0  0  0  0  0  0  0  0  0  0  0
    3.8675   -2.2828   -4.9870 O   0  0  0  0  0  0  0  0  0  0  0  0
    1.6162    2.6513   -4.6361 C   0  0  0  0  0  0  0  0  0  0  0  0
    0.5642    3.4240   -4.1659 C   0  0  0  0  0  0  0  0  0  0  0  0
    0.2835    3.4539   -2.7771 C   0  0  0  0  0  0  0  0  0  0  0  0
    1.0466    2.7080   -1.9125 C   0  0  0  0  0  0  0  0  0  0  0  0
    2.0821    1.9334   -2.3713 C   0  0  0  0  0  0  0  0  0  0  0  0
    2.3973    1.8995   -3.7554 C   0  0  0  0  0  0  0  0  0  0  0  0
    3.1472   -2.6152    4.0234 F   0  0  0  0  0  0  0  0  0  0  0  0
  1  2  1  0  0  0  0
  2  3  1  0  0  0  0
  2  5  1  0  0  0  0
  3  4  1  0  0  0  0
  5  6  4  0  0  0  0
  5 10  4  0  0  0  0
  6  7  4  0  0  0  0
  7  8  4  0  0  0  0
  8  9  4  0  0  0  0
  9 10  4  0  0  0  0
 10 11  1  0  0  0  0
 11 12  4  0  0  0  0
 11 15  4  0  0  0  0
 12 13  1  0  0  0  0
 12 68  4  0  0  0  0
 13 14  1  0  0  0  0
 15 16  1  0  0  0  0
 15 67  4  0  0  0  0
 16 17  1  0  0  0  0
 17 18  1  0  0  0  0
 17 19  1  0  0  0  0
 17 20  1  0  0  0  0
 20 21  1  0  0  0  0
 21 22  1  0  0  0  0
 22 23  1  0  0  0  0
 22 66  2  0  0  0  0
 23 24  1  0  0  0  0
 23 65  1  0  0  0  0
 24 25  1  0  0  0  0
 25 26  1  0  0  0  0
 25 63  1  0  0  0  0
 26 27  1  0  0  0  0
 26 62  2  0  0  0  0
 27 28  1  0  0  0  0
 27 55  1  0  0  0  0
 28 29  1  0  0  0  0
 29 30  1  0  0  0  0
 29 54  2  0  0  0  0
 30 31  1  0  0  0  0
 30 34  1  0  0  0  0
 31 32  1  0  0  0  0
 31 33  1  0  0  0  0
 34 35  1  0  0  0  0
 34 53  1  0  0  0  0
 35 36  1  0  0  0  0
 35 52  2  0  0  0  0
 36 37  1  0  0  0  0
 36 51  1  0  0  0  0
 36 73  1  0  0  0  0
 37 38  1  0  0  0  0
 38 39  1  0  0  0  0
 39 40  1  0  0  0  0
 39 50  1  0  0  0  0
 40 41  1  0  0  0  0
 40 49  2  0  0  0  0
 41 42  1  0  0  0  0
 42 43  1  0  0  0  0
 43 44  1  0  0  0  0
 43 47  1  0  0  0  0
 43 48  1  0  0  0  0
 44 45  1  0  0  0  0
 44 46  1  0  0  0  0
 50 51  1  0  0  0  0
 55 56  1  0  0  0  0
 56 57  1  0  0  0  0
 56 61  1  0  0  0  0
 57 58  1  0  0  0  0
 58 59  1  0  0  0  0
 58 71  1  0  0  0  0
 59 60  1  0  0  0  0
 60 61  1  0  0  0  0
 63 64  1  0  0  0  0
 64 65  1  0  0  0  0
 67 68  4  0  0  0  0
 67 72  4  0  0  0  0
 68 69  4  0  0  0  0
 69 70  4  0  0  0  0
 70 71  4  0  0  0  0
 71 72  4  0  0  0  0
M  END
$$$$
