mol_ETKDG0_31
  PyMOL3.1          3D                             0

 73 79  0  0  0  0  0  0  0  0999 V2000
    2.9175    7.2497   -7.4949 C   0  0  0  0  0  0  0  0  0  0  0  0
    2.8803    5.7425   -7.6093 C   0  0  0  0  0  0  0  0  0  0  0  0
    3.9840    5.2339   -8.3237 O   0  0  0  0  0  0  0  0  0  0  0  0
    5.2629    5.3621   -7.7330 C   0  0  0  0  0  0  0  0  0  0  0  0
    1.6868    5.2942   -8.3480 C   0  0  0  0  0  0  0  0  0  0  0  0
    1.5578    5.7666   -9.5758 N   0  0  0  0  0  0  0  0  0  0  0  0
    0.4816    5.4765  -10.3069 C   0  0  0  0  0  0  0  0  0  0  0  0
   -0.5342    4.6634   -9.7941 C   0  0  0  0  0  0  0  0  0  0  0  0
   -0.4009    4.1476   -8.5282 C   0  0  0  0  0  0  0  0  0  0  0  0
    0.7263    4.4656   -7.7926 C   0  0  0  0  0  0  0  0  0  0  0  0
    0.8921    3.8811   -6.4716 C   0  0  0  0  0  0  0  0  0  0  0  0
    0.2014    4.2379   -5.3519 N   0  0  0  0  0  0  0  0  0  0  0  0
   -0.7902    5.2955   -5.2348 C   0  0  0  0  0  0  0  0  0  0  0  0
   -2.1914    4.7059   -5.3049 C   0  0  0  0  0  0  0  0  0  0  0  0
    1.8113    2.9006   -6.1324 C   0  0  0  0  0  0  0  0  0  0  0  0
    2.8195    2.2930   -7.0241 C   0  0  0  0  0  0  0  0  0  0  0  0
    2.3551    0.9597   -7.7184 C   0  0  0  0  0  0  0  0  0  0  0  0
    3.0774    0.7827   -9.0708 C   0  0  0  0  0  0  0  0  0  0  0  0
    0.8542    0.9068   -7.9251 C   0  0  0  0  0  0  0  0  0  0  0  0
    2.6601   -0.1353   -6.8770 C   0  0  0  0  0  0  0  0  0  0  0  0
    4.0222   -0.1101   -6.2864 O   0  0  0  0  0  0  0  0  0  0  0  0
    4.4981   -1.1045   -5.4726 C   0  0  0  0  0  0  0  0  0  0  0  0
    5.8986   -0.8917   -5.0264 C   0  0  0  0  0  0  0  0  0  0  0  0
    6.1691   -1.8900   -4.0270 N   0  0  0  0  0  0  0  0  0  0  0  0
    7.4439   -1.8690   -3.5608 N   0  0  0  0  0  0  0  0  0  0  0  0
    7.7178   -1.5147   -2.2846 C   0  0  0  0  0  0  0  0  0  0  0  0
    6.5459   -1.2093   -1.3685 C   0  0  0  0  0  0  0  0  0  0  0  0
    6.8303   -1.5375    0.0020 N   0  0  0  0  0  0  0  0  0  0  0  0
    6.5393   -2.7009    0.5619 C   0  0  0  0  0  0  0  0  0  0  0  0
    6.8682   -2.7521    2.0258 C   0  0  0  0  0  0  0  0  0  0  0  0
    7.7232   -3.9630    2.4651 C   0  0  0  0  0  0  0  0  0  0  0  0
    7.9356   -3.9012    3.9784 C   0  0  0  0  0  0  0  0  0  0  0  0
    9.0845   -3.9330    1.7637 C   0  0  0  0  0  0  0  0  0  0  0  0
    5.6200   -2.7127    2.7557 N   0  0  0  0  0  0  0  0  0  0  0  0
    5.2529   -1.5171    3.3170 C   0  0  0  0  0  0  0  0  0  0  0  0
    4.1221   -1.3515    4.3017 C   0  0  0  0  0  0  0  0  0  0  0  0
    4.8334   -1.1213    5.6044 C   0  0  0  0  0  0  0  0  0  0  0  0
    3.9755   -1.1004    6.7121 C   0  0  0  0  0  0  0  0  0  0  0  0
    3.2309   -2.3511    6.7910 N   0  0  0  0  0  0  0  0  0  0  0  0
    3.1198   -3.0072    7.9573 C   0  0  0  0  0  0  0  0  0  0  0  0
    3.1129   -2.2093    9.1242 C   0  0  0  0  0  0  0  0  0  0  0  0
    2.5123   -1.2765    9.6713 C   0  0  0  0  0  0  0  0  0  0  0  0
    2.7707   -0.8807   11.1039 C   0  0  0  0  0  0  0  0  0  0  0  0
    4.1867   -0.4613   11.2633 N   0  0  0  0  0  0  0  0  0  0  0  0
    4.5558    0.6674   10.4080 C   0  0  0  0  0  0  0  0  0  0  0  0
    4.6114   -0.2466   12.6507 C   0  0  0  0  0  0  0  0  0  0  0  0
    1.8214    0.2405   11.5048 C   0  0  0  0  0  0  0  0  0  0  0  0
    2.5049   -2.1053   11.9935 C   0  0  0  0  0  0  0  0  0  0  0  0
    2.9428   -4.2153    8.0156 O   0  0  0  0  0  0  0  0  0  0  0  0
    2.5536   -2.8322    5.6111 C   0  0  0  0  0  0  0  0  0  0  0  0
    3.1093   -2.4343    4.3426 C   0  0  0  0  0  0  0  0  0  0  0  0
    5.9167   -0.5193    3.0820 O   0  0  0  0  0  0  0  0  0  0  0  0
    4.8697   -3.9499    2.8063 C   0  0  0  0  0  0  0  0  0  0  0  0
    6.0176   -3.6252   -0.0457 O   0  0  0  0  0  0  0  0  0  0  0  0
    6.2371    0.2859   -1.4185 C   0  0  0  0  0  0  0  0  0  0  0  0
    4.8735    0.6222   -0.9019 C   0  0  0  0  0  0  0  0  0  0  0  0
    3.8622    0.4169   -2.0113 C   0  0  0  0  0  0  0  0  0  0  0  0
    2.6122    1.0341   -1.5994 N   0  0  0  0  0  0  0  0  0  0  0  0
    2.1065    0.5123   -0.3447 C   0  0  0  0  0  0  0  0  0  0  0  0
    3.2045    0.4625    0.7440 C   0  0  0  0  0  0  0  0  0  0  0  0
    4.4264   -0.1255    0.1975 O   0  0  0  0  0  0  0  0  0  0  0  0
    8.8401   -1.3711   -1.8933 O   0  0  0  0  0  0  0  0  0  0  0  0
    8.4812   -2.1358   -4.5788 C   0  0  0  0  0  0  0  0  0  0  0  0
    8.3126   -1.0460   -5.6585 C   0  0  0  0  0  0  0  0  0  0  0  0
    6.8990   -1.0165   -6.1867 C   0  0  0  0  0  0  0  0  0  0  0  0
    3.9230   -2.1490   -5.0678 O   0  0  0  0  0  0  0  0  0  0  0  0
    1.6350    2.6728   -4.7520 C   0  0  0  0  0  0  0  0  0  0  0  0
    0.6174    3.4984   -4.3016 C   0  0  0  0  0  0  0  0  0  0  0  0
    0.2502    3.4736   -2.9411 C   0  0  0  0  0  0  0  0  0  0  0  0
    0.9176    2.6454   -2.0675 C   0  0  0  0  0  0  0  0  0  0  0  0
    1.9332    1.8287   -2.5093 C   0  0  0  0  0  0  0  0  0  0  0  0
    2.3182    1.8366   -3.8715 C   0  0  0  0  0  0  0  0  0  0  0  0
    3.3524   -0.2520    3.9939 F   0  0  0  0  0  0  0  0  0  0  0  0
  1  2  1  0  0  0  0
  2  3  1  0  0  0  0
  2  5  1  0  0  0  0
  3  4  1  0  0  0  0
  5  6  4  0  0  0  0
  5 10  4  0  0  0  0
  6  7  4  0  0  0  0
  7  8  4  0  0  0  0
  8  9  4  0  0  0  0
  9 10  4  0  0  0  0
 10 11  1  0  0  0  0
 11 12  4  0  0  0  0
 11 15  4  0  0  0  0
 12 13  1  0  0  0  0
 12 68  4  0  0  0  0
 13 14  1  0  0  0  0
 15 16  1  0  0  0  0
 15 67  4  0  0  0  0
 16 17  1  0  0  0  0
 17 18  1  0  0  0  0
 17 19  1  0  0  0  0
 17 20  1  0  0  0  0
 20 21  1  0  0  0  0
 21 22  1  0  0  0  0
 22 23  1  0  0  0  0
 22 66  2  0  0  0  0
 23 24  1  0  0  0  0
 23 65  1  0  0  0  0
 24 25  1  0  0  0  0
 25 26  1  0  0  0  0
 25 63  1  0  0  0  0
 26 27  1  0  0  0  0
 26 62  2  0  0  0  0
 27 28  1  0  0  0  0
 27 55  1  0  0  0  0
 28 29  1  0  0  0  0
 29 30  1  0  0  0  0
 29 54  2  0  0  0  0
 30 31  1  0  0  0  0
 30 34  1  0  0  0  0
 31 32  1  0  0  0  0
 31 33  1  0  0  0  0
 34 35  1  0  0  0  0
 34 53  1  0  0  0  0
 35 36  1  0  0  0  0
 35 52  2  0  0  0  0
 36 37  1  0  0  0  0
 36 51  1  0  0  0  0
 36 73  1  0  0  0  0
 37 38  1  0  0  0  0
 38 39  1  0  0  0  0
 39 40  1  0  0  0  0
 39 50  1  0  0  0  0
 40 41  1  0  0  0  0
 40 49  2  0  0  0  0
 41 42  1  0  0  0  0
 42 43  1  0  0  0  0
 43 44  1  0  0  0  0
 43 47  1  0  0  0  0
 43 48  1  0  0  0  0
 44 45  1  0  0  0  0
 44 46  1  0  0  0  0
 50 51  1  0  0  0  0
 55 56  1  0  0  0  0
 56 57  1  0  0  0  0
 56 61  1  0  0  0  0
 57 58  1  0  0  0  0
 58 59  1  0  0  0  0
 58 71  1  0  0  0  0
 59 60  1  0  0  0  0
 60 61  1  0  0  0  0
 63 64  1  0  0  0  0
 64 65  1  0  0  0  0
 67 68  4  0  0  0  0
 67 72  4  0  0  0  0
 68 69  4  0  0  0  0
 69 70  4  0  0  0  0
 70 71  4  0  0  0  0
 71 72  4  0  0  0  0
M  END
$$$$
