mol_ETKDG4_21
  PyMOL3.1          3D                             0

 73 79  0  0  0  0  0  0  0  0999 V2000
    2.3961    6.7113   -7.3497 C   0  0  0  0  0  0  0  0  0  0  0  0
    2.3655    5.1975   -7.4937 C   0  0  0  0  0  0  0  0  0  0  0  0
    3.3773    4.7178   -8.3341 O   0  0  0  0  0  0  0  0  0  0  0  0
    4.7232    4.9268   -7.9609 C   0  0  0  0  0  0  0  0  0  0  0  0
    1.0968    4.7362   -8.0811 C   0  0  0  0  0  0  0  0  0  0  0  0
    0.8091    5.1660   -9.2979 N   0  0  0  0  0  0  0  0  0  0  0  0
   -0.3346    4.8342   -9.8991 C   0  0  0  0  0  0  0  0  0  0  0  0
   -1.2679    4.0147   -9.2469 C   0  0  0  0  0  0  0  0  0  0  0  0
   -0.9689    3.5549   -7.9827 C   0  0  0  0  0  0  0  0  0  0  0  0
    0.2184    3.9186   -7.3997 C   0  0  0  0  0  0  0  0  0  0  0  0
    0.5529    3.4092   -6.0847 C   0  0  0  0  0  0  0  0  0  0  0  0
    0.0306    3.8796   -4.9207 N   0  0  0  0  0  0  0  0  0  0  0  0
   -0.8825    5.0083   -4.7421 C   0  0  0  0  0  0  0  0  0  0  0  0
   -2.3257    4.5302   -4.6352 C   0  0  0  0  0  0  0  0  0  0  0  0
    1.4672    2.4088   -5.8035 C   0  0  0  0  0  0  0  0  0  0  0  0
    2.3619    1.7288   -6.7761 C   0  0  0  0  0  0  0  0  0  0  0  0
    1.8235    0.3774   -7.3536 C   0  0  0  0  0  0  0  0  0  0  0  0
    0.2989    0.3011   -7.3750 C   0  0  0  0  0  0  0  0  0  0  0  0
    2.3693    0.1295   -8.7866 C   0  0  0  0  0  0  0  0  0  0  0  0
    2.2676   -0.6944   -6.5380 C   0  0  0  0  0  0  0  0  0  0  0  0
    3.6793   -0.5919   -6.0703 O   0  0  0  0  0  0  0  0  0  0  0  0
    4.2719   -1.5046   -5.2372 C   0  0  0  0  0  0  0  0  0  0  0  0
    5.6919   -1.1893   -4.8878 C   0  0  0  0  0  0  0  0  0  0  0  0
    6.0927   -2.1242   -3.8737 N   0  0  0  0  0  0  0  0  0  0  0  0
    7.3888   -2.0091   -3.4836 N   0  0  0  0  0  0  0  0  0  0  0  0
    7.7183   -1.6483   -2.2155 C   0  0  0  0  0  0  0  0  0  0  0  0
    6.5814   -1.4323   -1.2398 C   0  0  0  0  0  0  0  0  0  0  0  0
    6.9407   -1.7627    0.1101 N   0  0  0  0  0  0  0  0  0  0  0  0
    6.6230   -2.9062    0.7037 C   0  0  0  0  0  0  0  0  0  0  0  0
    7.0134   -2.9901    2.1475 C   0  0  0  0  0  0  0  0  0  0  0  0
    7.9123   -4.2019    2.5057 C   0  0  0  0  0  0  0  0  0  0  0  0
    8.1776   -4.2171    4.0135 C   0  0  0  0  0  0  0  0  0  0  0  0
    9.2541   -4.1066    1.7622 C   0  0  0  0  0  0  0  0  0  0  0  0
    5.7999   -3.0259    2.9348 N   0  0  0  0  0  0  0  0  0  0  0  0
    5.4847   -1.9161    3.6552 C   0  0  0  0  0  0  0  0  0  0  0  0
    4.3820   -1.9997    4.6971 C   0  0  0  0  0  0  0  0  0  0  0  0
    4.8968   -2.9084    5.7762 C   0  0  0  0  0  0  0  0  0  0  0  0
    3.9304   -3.0301    6.8971 C   0  0  0  0  0  0  0  0  0  0  0  0
    3.8207   -1.6945    7.3962 N   0  0  0  0  0  0  0  0  0  0  0  0
    4.5398   -1.4328    8.5349 C   0  0  0  0  0  0  0  0  0  0  0  0
    4.8924   -0.0972    8.8463 C   0  0  0  0  0  0  0  0  0  0  0  0
    4.6255    0.9758    9.1148 C   0  0  0  0  0  0  0  0  0  0  0  0
    5.3970    2.2348    9.3365 C   0  0  0  0  0  0  0  0  0  0  0  0
    6.5434    2.2973    8.4003 N   0  0  0  0  0  0  0  0  0  0  0  0
    6.1400    2.3125    6.9858 C   0  0  0  0  0  0  0  0  0  0  0  0
    7.5356    3.3371    8.6984 C   0  0  0  0  0  0  0  0  0  0  0  0
    4.4780    3.4524    9.1286 C   0  0  0  0  0  0  0  0  0  0  0  0
    5.9034    2.2184   10.7770 C   0  0  0  0  0  0  0  0  0  0  0  0
    4.9216   -2.3195    9.2757 O   0  0  0  0  0  0  0  0  0  0  0  0
    3.1830   -0.7570    6.4811 C   0  0  0  0  0  0  0  0  0  0  0  0
    4.0626   -0.6242    5.2781 C   0  0  0  0  0  0  0  0  0  0  0  0
    6.0992   -0.8708    3.5015 O   0  0  0  0  0  0  0  0  0  0  0  0
    4.9934   -4.2529    2.9047 C   0  0  0  0  0  0  0  0  0  0  0  0
    6.0309   -3.8105    0.1130 O   0  0  0  0  0  0  0  0  0  0  0  0
    6.1680    0.0217   -1.2190 C   0  0  0  0  0  0  0  0  0  0  0  0
    4.8242    0.2233   -0.6159 C   0  0  0  0  0  0  0  0  0  0  0  0
    3.8254    0.1182   -1.7291 C   0  0  0  0  0  0  0  0  0  0  0  0
    2.6055    0.7141   -1.2628 N   0  0  0  0  0  0  0  0  0  0  0  0
    2.0831    0.0720   -0.0611 C   0  0  0  0  0  0  0  0  0  0  0  0
    3.1597   -0.2136    0.9914 C   0  0  0  0  0  0  0  0  0  0  0  0
    4.3922   -0.6852    0.3705 O   0  0  0  0  0  0  0  0  0  0  0  0
    8.8555   -1.4409   -1.8750 O   0  0  0  0  0  0  0  0  0  0  0  0
    8.3925   -2.2143   -4.5502 C   0  0  0  0  0  0  0  0  0  0  0  0
    8.0752   -1.1823   -5.6527 C   0  0  0  0  0  0  0  0  0  0  0  0
    6.6298   -1.2937   -6.1005 C   0  0  0  0  0  0  0  0  0  0  0  0
    3.7718   -2.5493   -4.7440 O   0  0  0  0  0  0  0  0  0  0  0  0
    1.4428    2.2584   -4.3973 C   0  0  0  0  0  0  0  0  0  0  0  0
    0.5306    3.1722   -3.8849 C   0  0  0  0  0  0  0  0  0  0  0  0
    0.3184    3.2496   -2.4892 C   0  0  0  0  0  0  0  0  0  0  0  0
    1.0155    2.4192   -1.6431 C   0  0  0  0  0  0  0  0  0  0  0  0
    1.9130    1.5109   -2.1456 C   0  0  0  0  0  0  0  0  0  0  0  0
    2.1582    1.4229   -3.5445 C   0  0  0  0  0  0  0  0  0  0  0  0
    3.1981   -2.4558    4.1329 F   0  0  0  0  0  0  0  0  0  0  0  0
  1  2  1  0  0  0  0
  2  3  1  0  0  0  0
  2  5  1  0  0  0  0
  3  4  1  0  0  0  0
  5  6  4  0  0  0  0
  5 10  4  0  0  0  0
  6  7  4  0  0  0  0
  7  8  4  0  0  0  0
  8  9  4  0  0  0  0
  9 10  4  0  0  0  0
 10 11  1  0  0  0  0
 11 12  4  0  0  0  0
 11 15  4  0  0  0  0
 12 13  1  0  0  0  0
 12 68  4  0  0  0  0
 13 14  1  0  0  0  0
 15 16  1  0  0  0  0
 15 67  4  0  0  0  0
 16 17  1  0  0  0  0
 17 18  1  0  0  0  0
 17 19  1  0  0  0  0
 17 20  1  0  0  0  0
 20 21  1  0  0  0  0
 21 22  1  0  0  0  0
 22 23  1  0  0  0  0
 22 66  2  0  0  0  0
 23 24  1  0  0  0  0
 23 65  1  0  0  0  0
 24 25  1  0  0  0  0
 25 26  1  0  0  0  0
 25 63  1  0  0  0  0
 26 27  1  0  0  0  0
 26 62  2  0  0  0  0
 27 28  1  0  0  0  0
 27 55  1  0  0  0  0
 28 29  1  0  0  0  0
 29 30  1  0  0  0  0
 29 54  2  0  0  0  0
 30 31  1  0  0  0  0
 30 34  1  0  0  0  0
 31 32  1  0  0  0  0
 31 33  1  0  0  0  0
 34 35  1  0  0  0  0
 34 53  1  0  0  0  0
 35 36  1  0  0  0  0
 35 52  2  0  0  0  0
 36 37  1  0  0  0  0
 36 51  1  0  0  0  0
 36 73  1  0  0  0  0
 37 38  1  0  0  0  0
 38 39  1  0  0  0  0
 39 40  1  0  0  0  0
 39 50  1  0  0  0  0
 40 41  1  0  0  0  0
 40 49  2  0  0  0  0
 41 42  1  0  0  0  0
 42 43  1  0  0  0  0
 43 44  1  0  0  0  0
 43 47  1  0  0  0  0
 43 48  1  0  0  0  0
 44 45  1  0  0  0  0
 44 46  1  0  0  0  0
 50 51  1  0  0  0  0
 55 56  1  0  0  0  0
 56 57  1  0  0  0  0
 56 61  1  0  0  0  0
 57 58  1  0  0  0  0
 58 59  1  0  0  0  0
 58 71  1  0  0  0  0
 59 60  1  0  0  0  0
 60 61  1  0  0  0  0
 63 64  1  0  0  0  0
 64 65  1  0  0  0  0
 67 68  4  0  0  0  0
 67 72  4  0  0  0  0
 68 69  4  0  0  0  0
 69 70  4  0  0  0  0
 70 71  4  0  0  0  0
 71 72  4  0  0  0  0
M  END
$$$$
