mol_ETKDG0_34
  PyMOL3.1          3D                             0

 73 79  0  0  0  0  0  0  0  0999 V2000
    2.7313    7.8329   -7.1404 C   0  0  0  0  0  0  0  0  0  0  0  0
    2.8696    6.3458   -7.2761 C   0  0  0  0  0  0  0  0  0  0  0  0
    4.0929    5.8465   -7.6461 O   0  0  0  0  0  0  0  0  0  0  0  0
    4.9233    6.5684   -8.5138 C   0  0  0  0  0  0  0  0  0  0  0  0
    1.8526    5.7697   -8.1790 C   0  0  0  0  0  0  0  0  0  0  0  0
    1.7222    6.2753   -9.3979 N   0  0  0  0  0  0  0  0  0  0  0  0
    0.7785    5.8290  -10.2237 C   0  0  0  0  0  0  0  0  0  0  0  0
   -0.0943    4.8227   -9.8206 C   0  0  0  0  0  0  0  0  0  0  0  0
    0.0437    4.2868   -8.5625 C   0  0  0  0  0  0  0  0  0  0  0  0
    1.0548    4.7635   -7.7409 C   0  0  0  0  0  0  0  0  0  0  0  0
    1.2469    4.1749   -6.4325 C   0  0  0  0  0  0  0  0  0  0  0  0
    0.5534    4.5365   -5.3266 N   0  0  0  0  0  0  0  0  0  0  0  0
   -0.4735    5.5577   -5.2557 C   0  0  0  0  0  0  0  0  0  0  0  0
   -1.8487    4.9112   -5.3883 C   0  0  0  0  0  0  0  0  0  0  0  0
    2.1869    3.2185   -6.0843 C   0  0  0  0  0  0  0  0  0  0  0  0
    3.2253    2.6274   -6.9637 C   0  0  0  0  0  0  0  0  0  0  0  0
    2.7848    1.3164   -7.7214 C   0  0  0  0  0  0  0  0  0  0  0  0
    3.6630    1.1084   -8.9733 C   0  0  0  0  0  0  0  0  0  0  0  0
    1.3317    1.3166   -8.1307 C   0  0  0  0  0  0  0  0  0  0  0  0
    2.9261    0.2112   -6.8526 C   0  0  0  0  0  0  0  0  0  0  0  0
    4.2541    0.1064   -6.2340 O   0  0  0  0  0  0  0  0  0  0  0  0
    4.6221   -0.9531   -5.4506 C   0  0  0  0  0  0  0  0  0  0  0  0
    6.0183   -0.8614   -4.9894 C   0  0  0  0  0  0  0  0  0  0  0  0
    6.2004   -1.8737   -3.9850 N   0  0  0  0  0  0  0  0  0  0  0  0
    7.4664   -1.9412   -3.5143 N   0  0  0  0  0  0  0  0  0  0  0  0
    7.7580   -1.6184   -2.2376 C   0  0  0  0  0  0  0  0  0  0  0  0
    6.6083   -1.2638   -1.3166 C   0  0  0  0  0  0  0  0  0  0  0  0
    6.8639   -1.6380    0.0554 N   0  0  0  0  0  0  0  0  0  0  0  0
    6.4960   -2.7942    0.5971 C   0  0  0  0  0  0  0  0  0  0  0  0
    6.8439   -2.9319    2.0518 C   0  0  0  0  0  0  0  0  0  0  0  0
    7.7410   -4.1561    2.3888 C   0  0  0  0  0  0  0  0  0  0  0  0
    8.0187   -4.1781    3.8937 C   0  0  0  0  0  0  0  0  0  0  0  0
    9.0712   -4.0685    1.6389 C   0  0  0  0  0  0  0  0  0  0  0  0
    5.6240   -3.0209    2.8289 N   0  0  0  0  0  0  0  0  0  0  0  0
    5.3036   -1.9660    3.6265 C   0  0  0  0  0  0  0  0  0  0  0  0
    4.1726   -2.1158    4.6248 C   0  0  0  0  0  0  0  0  0  0  0  0
    4.6750   -3.0080    5.7321 C   0  0  0  0  0  0  0  0  0  0  0  0
    3.6103   -3.2378    6.7684 C   0  0  0  0  0  0  0  0  0  0  0  0
    3.3206   -1.9336    7.2897 N   0  0  0  0  0  0  0  0  0  0  0  0
    3.8167   -1.6387    8.5320 C   0  0  0  0  0  0  0  0  0  0  0  0
    4.2494   -0.3250    8.7974 C   0  0  0  0  0  0  0  0  0  0  0  0
    4.0802    0.8330    8.8965 C   0  0  0  0  0  0  0  0  0  0  0  0
    5.0484    1.9780    9.0976 C   0  0  0  0  0  0  0  0  0  0  0  0
    6.2372    1.7798    8.2351 N   0  0  0  0  0  0  0  0  0  0  0  0
    5.9393    1.8476    6.8083 C   0  0  0  0  0  0  0  0  0  0  0  0
    7.4039    2.6078    8.5740 C   0  0  0  0  0  0  0  0  0  0  0  0
    5.4716    1.9664   10.5577 C   0  0  0  0  0  0  0  0  0  0  0  0
    4.3684    3.2957    8.7576 C   0  0  0  0  0  0  0  0  0  0  0  0
    3.9542   -2.4894    9.3886 O   0  0  0  0  0  0  0  0  0  0  0  0
    2.7302   -1.0085    6.3251 C   0  0  0  0  0  0  0  0  0  0  0  0
    3.7328   -0.7791    5.2267 C   0  0  0  0  0  0  0  0  0  0  0  0
    5.9192   -0.9166    3.5698 O   0  0  0  0  0  0  0  0  0  0  0  0
    4.8393   -4.2554    2.7114 C   0  0  0  0  0  0  0  0  0  0  0  0
    5.9046   -3.6579   -0.0345 O   0  0  0  0  0  0  0  0  0  0  0  0
    6.4307    0.2460   -1.3584 C   0  0  0  0  0  0  0  0  0  0  0  0
    5.1339    0.7134   -0.8119 C   0  0  0  0  0  0  0  0  0  0  0  0
    4.1019    0.6527   -1.9141 C   0  0  0  0  0  0  0  0  0  0  0  0
    2.9503    1.4129   -1.4875 N   0  0  0  0  0  0  0  0  0  0  0  0
    2.4062    0.9327   -0.2275 C   0  0  0  0  0  0  0  0  0  0  0  0
    3.4930    0.7084    0.8473 C   0  0  0  0  0  0  0  0  0  0  0  0
    4.6291   -0.0014    0.2740 O   0  0  0  0  0  0  0  0  0  0  0  0
    8.8864   -1.5286   -1.8465 O   0  0  0  0  0  0  0  0  0  0  0  0
    8.4860   -2.2757   -4.5246 C   0  0  0  0  0  0  0  0  0  0  0  0
    8.3969   -1.1835   -5.6084 C   0  0  0  0  0  0  0  0  0  0  0  0
    7.0003   -1.0768   -6.1416 C   0  0  0  0  0  0  0  0  0  0  0  0
    3.9604   -1.9620   -5.0837 O   0  0  0  0  0  0  0  0  0  0  0  0
    2.0134    3.0035   -4.6999 C   0  0  0  0  0  0  0  0  0  0  0  0
    0.9855    3.8248   -4.2656 C   0  0  0  0  0  0  0  0  0  0  0  0
    0.6172    3.8259   -2.9073 C   0  0  0  0  0  0  0  0  0  0  0  0
    1.2814    3.0193   -2.0117 C   0  0  0  0  0  0  0  0  0  0  0  0
    2.2953    2.1961   -2.4272 C   0  0  0  0  0  0  0  0  0  0  0  0
    2.6962    2.1855   -3.7932 C   0  0  0  0  0  0  0  0  0  0  0  0
    3.0553   -2.6185    3.9990 F   0  0  0  0  0  0  0  0  0  0  0  0
  1  2  1  0  0  0  0
  2  3  1  0  0  0  0
  2  5  1  0  0  0  0
  3  4  1  0  0  0  0
  5  6  4  0  0  0  0
  5 10  4  0  0  0  0
  6  7  4  0  0  0  0
  7  8  4  0  0  0  0
  8  9  4  0  0  0  0
  9 10  4  0  0  0  0
 10 11  1  0  0  0  0
 11 12  4  0  0  0  0
 11 15  4  0  0  0  0
 12 13  1  0  0  0  0
 12 68  4  0  0  0  0
 13 14  1  0  0  0  0
 15 16  1  0  0  0  0
 15 67  4  0  0  0  0
 16 17  1  0  0  0  0
 17 18  1  0  0  0  0
 17 19  1  0  0  0  0
 17 20  1  0  0  0  0
 20 21  1  0  0  0  0
 21 22  1  0  0  0  0
 22 23  1  0  0  0  0
 22 66  2  0  0  0  0
 23 24  1  0  0  0  0
 23 65  1  0  0  0  0
 24 25  1  0  0  0  0
 25 26  1  0  0  0  0
 25 63  1  0  0  0  0
 26 27  1  0  0  0  0
 26 62  2  0  0  0  0
 27 28  1  0  0  0  0
 27 55  1  0  0  0  0
 28 29  1  0  0  0  0
 29 30  1  0  0  0  0
 29 54  2  0  0  0  0
 30 31  1  0  0  0  0
 30 34  1  0  0  0  0
 31 32  1  0  0  0  0
 31 33  1  0  0  0  0
 34 35  1  0  0  0  0
 34 53  1  0  0  0  0
 35 36  1  0  0  0  0
 35 52  2  0  0  0  0
 36 37  1  0  0  0  0
 36 51  1  0  0  0  0
 36 73  1  0  0  0  0
 37 38  1  0  0  0  0
 38 39  1  0  0  0  0
 39 40  1  0  0  0  0
 39 50  1  0  0  0  0
 40 41  1  0  0  0  0
 40 49  2  0  0  0  0
 41 42  1  0  0  0  0
 42 43  1  0  0  0  0
 43 44  1  0  0  0  0
 43 47  1  0  0  0  0
 43 48  1  0  0  0  0
 44 45  1  0  0  0  0
 44 46  1  0  0  0  0
 50 51  1  0  0  0  0
 55 56  1  0  0  0  0
 56 57  1  0  0  0  0
 56 61  1  0  0  0  0
 57 58  1  0  0  0  0
 58 59  1  0  0  0  0
 58 71  1  0  0  0  0
 59 60  1  0  0  0  0
 60 61  1  0  0  0  0
 63 64  1  0  0  0  0
 64 65  1  0  0  0  0
 67 68  4  0  0  0  0
 67 72  4  0  0  0  0
 68 69  4  0  0  0  0
 69 70  4  0  0  0  0
 70 71  4  0  0  0  0
 71 72  4  0  0  0  0
M  END
$$$$
