mol_ETKDG2_11
  PyMOL3.1          3D                             0

 73 79  0  0  0  0  0  0  0  0999 V2000
    2.4949    7.0384   -6.9527 C   0  0  0  0  0  0  0  0  0  0  0  0
    2.4740    5.6244   -7.4962 C   0  0  0  0  0  0  0  0  0  0  0  0
    3.4558    5.3939   -8.4813 O   0  0  0  0  0  0  0  0  0  0  0  0
    4.8139    5.5351   -8.1621 C   0  0  0  0  0  0  0  0  0  0  0  0
    1.1883    5.2824   -8.1397 C   0  0  0  0  0  0  0  0  0  0  0  0
    0.9721    5.8268   -9.3161 N   0  0  0  0  0  0  0  0  0  0  0  0
   -0.1653    5.6059   -9.9792 C   0  0  0  0  0  0  0  0  0  0  0  0
   -1.1550    4.7869   -9.4434 C   0  0  0  0  0  0  0  0  0  0  0  0
   -0.9398    4.2001   -8.2215 C   0  0  0  0  0  0  0  0  0  0  0  0
    0.2433    4.4472   -7.5523 C   0  0  0  0  0  0  0  0  0  0  0  0
    0.4692    3.8106   -6.2621 C   0  0  0  0  0  0  0  0  0  0  0  0
   -0.2927    4.0137   -5.1568 N   0  0  0  0  0  0  0  0  0  0  0  0
   -1.4858    4.8592   -5.0339 C   0  0  0  0  0  0  0  0  0  0  0  0
   -1.1963    6.1142   -4.2105 C   0  0  0  0  0  0  0  0  0  0  0  0
    1.5003    2.9266   -5.9562 C   0  0  0  0  0  0  0  0  0  0  0  0
    2.5926    2.4516   -6.8545 C   0  0  0  0  0  0  0  0  0  0  0  0
    2.2611    1.1468   -7.6751 C   0  0  0  0  0  0  0  0  0  0  0  0
    3.1296    1.0938   -8.9642 C   0  0  0  0  0  0  0  0  0  0  0  0
    0.7962    1.0343   -8.0470 C   0  0  0  0  0  0  0  0  0  0  0  0
    2.5521    0.0020   -6.8718 C   0  0  0  0  0  0  0  0  0  0  0  0
    3.9105   -0.0032   -6.2800 O   0  0  0  0  0  0  0  0  0  0  0  0
    4.3711   -1.0216   -5.4793 C   0  0  0  0  0  0  0  0  0  0  0  0
    5.7837   -0.8340   -5.0367 C   0  0  0  0  0  0  0  0  0  0  0  0
    6.0425   -1.8396   -4.0390 N   0  0  0  0  0  0  0  0  0  0  0  0
    7.3212   -1.8435   -3.5832 N   0  0  0  0  0  0  0  0  0  0  0  0
    7.5926   -1.5140   -2.2917 C   0  0  0  0  0  0  0  0  0  0  0  0
    6.4167   -1.2800   -1.3574 C   0  0  0  0  0  0  0  0  0  0  0  0
    6.7344   -1.6055   -0.0021 N   0  0  0  0  0  0  0  0  0  0  0  0
    6.4283   -2.7689    0.5672 C   0  0  0  0  0  0  0  0  0  0  0  0
    6.7514   -2.8529    2.0272 C   0  0  0  0  0  0  0  0  0  0  0  0
    7.6574   -4.0403    2.4440 C   0  0  0  0  0  0  0  0  0  0  0  0
    7.9040   -3.9894    3.9526 C   0  0  0  0  0  0  0  0  0  0  0  0
    9.0035   -3.9753    1.7086 C   0  0  0  0  0  0  0  0  0  0  0  0
    5.4890   -2.9210    2.7569 N   0  0  0  0  0  0  0  0  0  0  0  0
    5.1011   -1.8445    3.4613 C   0  0  0  0  0  0  0  0  0  0  0  0
    3.9137   -1.9568    4.3959 C   0  0  0  0  0  0  0  0  0  0  0  0
    4.4191   -2.6264    5.6559 C   0  0  0  0  0  0  0  0  0  0  0  0
    3.3139   -2.7873    6.6587 C   0  0  0  0  0  0  0  0  0  0  0  0
    2.8568   -1.4414    6.9273 N   0  0  0  0  0  0  0  0  0  0  0  0
    3.2225   -0.8984    8.1379 C   0  0  0  0  0  0  0  0  0  0  0  0
    3.4269    0.5064    8.2479 C   0  0  0  0  0  0  0  0  0  0  0  0
    3.0012    1.5899    7.9872 C   0  0  0  0  0  0  0  0  0  0  0  0
    3.6404    2.9446    8.1152 C   0  0  0  0  0  0  0  0  0  0  0  0
    5.0971    2.8156    7.8208 N   0  0  0  0  0  0  0  0  0  0  0  0
    5.4009    2.5127    6.4149 C   0  0  0  0  0  0  0  0  0  0  0  0
    5.9704    3.8806    8.3315 C   0  0  0  0  0  0  0  0  0  0  0  0
    3.0029    3.9662    7.1566 C   0  0  0  0  0  0  0  0  0  0  0  0
    3.4432    3.4363    9.5546 C   0  0  0  0  0  0  0  0  0  0  0  0
    3.4369   -1.5921    9.1082 O   0  0  0  0  0  0  0  0  0  0  0  0
    2.2595   -0.7570    5.7817 C   0  0  0  0  0  0  0  0  0  0  0  0
    3.3139   -0.5923    4.7259 C   0  0  0  0  0  0  0  0  0  0  0  0
    5.7169   -0.7822    3.3878 O   0  0  0  0  0  0  0  0  0  0  0  0
    4.7407   -4.1831    2.6712 C   0  0  0  0  0  0  0  0  0  0  0  0
    5.8832   -3.6794   -0.0538 O   0  0  0  0  0  0  0  0  0  0  0  0
    6.0076    0.1897   -1.3513 C   0  0  0  0  0  0  0  0  0  0  0  0
    4.6417    0.4216   -0.7855 C   0  0  0  0  0  0  0  0  0  0  0  0
    3.6843    0.4274   -1.9467 C   0  0  0  0  0  0  0  0  0  0  0  0
    2.4110    0.9448   -1.4906 N   0  0  0  0  0  0  0  0  0  0  0  0
    1.8533    0.1965   -0.3807 C   0  0  0  0  0  0  0  0  0  0  0  0
    2.8892   -0.0664    0.7289 C   0  0  0  0  0  0  0  0  0  0  0  0
    4.1507   -0.5231    0.1410 O   0  0  0  0  0  0  0  0  0  0  0  0
    8.7231   -1.3554   -1.9018 O   0  0  0  0  0  0  0  0  0  0  0  0
    8.3542   -2.1091   -4.5978 C   0  0  0  0  0  0  0  0  0  0  0  0
    8.1970   -1.0082   -5.6769 C   0  0  0  0  0  0  0  0  0  0  0  0
    6.7780   -0.9635   -6.2040 C   0  0  0  0  0  0  0  0  0  0  0  0
    3.7780   -2.0580   -5.0869 O   0  0  0  0  0  0  0  0  0  0  0  0
    1.3347    2.6233   -4.5919 C   0  0  0  0  0  0  0  0  0  0  0  0
    0.2127    3.3030   -4.1243 C   0  0  0  0  0  0  0  0  0  0  0  0
   -0.1691    3.1793   -2.7698 C   0  0  0  0  0  0  0  0  0  0  0  0
    0.5676    2.3823   -1.9190 C   0  0  0  0  0  0  0  0  0  0  0  0
    1.6779    1.7135   -2.3842 C   0  0  0  0  0  0  0  0  0  0  0  0
    2.0844    1.8239   -3.7315 C   0  0  0  0  0  0  0  0  0  0  0  0
    2.8775   -2.6593    3.8198 F   0  0  0  0  0  0  0  0  0  0  0  0
  1  2  1  0  0  0  0
  2  3  1  0  0  0  0
  2  5  1  0  0  0  0
  3  4  1  0  0  0  0
  5  6  4  0  0  0  0
  5 10  4  0  0  0  0
  6  7  4  0  0  0  0
  7  8  4  0  0  0  0
  8  9  4  0  0  0  0
  9 10  4  0  0  0  0
 10 11  1  0  0  0  0
 11 12  4  0  0  0  0
 11 15  4  0  0  0  0
 12 13  1  0  0  0  0
 12 68  4  0  0  0  0
 13 14  1  0  0  0  0
 15 16  1  0  0  0  0
 15 67  4  0  0  0  0
 16 17  1  0  0  0  0
 17 18  1  0  0  0  0
 17 19  1  0  0  0  0
 17 20  1  0  0  0  0
 20 21  1  0  0  0  0
 21 22  1  0  0  0  0
 22 23  1  0  0  0  0
 22 66  2  0  0  0  0
 23 24  1  0  0  0  0
 23 65  1  0  0  0  0
 24 25  1  0  0  0  0
 25 26  1  0  0  0  0
 25 63  1  0  0  0  0
 26 27  1  0  0  0  0
 26 62  2  0  0  0  0
 27 28  1  0  0  0  0
 27 55  1  0  0  0  0
 28 29  1  0  0  0  0
 29 30  1  0  0  0  0
 29 54  2  0  0  0  0
 30 31  1  0  0  0  0
 30 34  1  0  0  0  0
 31 32  1  0  0  0  0
 31 33  1  0  0  0  0
 34 35  1  0  0  0  0
 34 53  1  0  0  0  0
 35 36  1  0  0  0  0
 35 52  2  0  0  0  0
 36 37  1  0  0  0  0
 36 51  1  0  0  0  0
 36 73  1  0  0  0  0
 37 38  1  0  0  0  0
 38 39  1  0  0  0  0
 39 40  1  0  0  0  0
 39 50  1  0  0  0  0
 40 41  1  0  0  0  0
 40 49  2  0  0  0  0
 41 42  1  0  0  0  0
 42 43  1  0  0  0  0
 43 44  1  0  0  0  0
 43 47  1  0  0  0  0
 43 48  1  0  0  0  0
 44 45  1  0  0  0  0
 44 46  1  0  0  0  0
 50 51  1  0  0  0  0
 55 56  1  0  0  0  0
 56 57  1  0  0  0  0
 56 61  1  0  0  0  0
 57 58  1  0  0  0  0
 58 59  1  0  0  0  0
 58 71  1  0  0  0  0
 59 60  1  0  0  0  0
 60 61  1  0  0  0  0
 63 64  1  0  0  0  0
 64 65  1  0  0  0  0
 67 68  4  0  0  0  0
 67 72  4  0  0  0  0
 68 69  4  0  0  0  0
 69 70  4  0  0  0  0
 70 71  4  0  0  0  0
 71 72  4  0  0  0  0
M  END
$$$$
