mol_ETKDG3_16
  PyMOL3.1          3D                             0

 73 79  0  0  0  0  0  0  0  0999 V2000
    2.7136    6.4279   -8.4454 C   0  0  0  0  0  0  0  0  0  0  0  0
    2.5795    4.9126   -8.3564 C   0  0  0  0  0  0  0  0  0  0  0  0
    3.4963    4.2520   -9.2017 O   0  0  0  0  0  0  0  0  0  0  0  0
    4.8254    4.1212   -8.7400 C   0  0  0  0  0  0  0  0  0  0  0  0
    1.2588    4.4712   -8.8023 C   0  0  0  0  0  0  0  0  0  0  0  0
    0.9469    4.7864  -10.0427 N   0  0  0  0  0  0  0  0  0  0  0  0
   -0.2369    4.4756  -10.5584 C   0  0  0  0  0  0  0  0  0  0  0  0
   -1.1843    3.8071   -9.7922 C   0  0  0  0  0  0  0  0  0  0  0  0
   -0.8647    3.4538   -8.4943 C   0  0  0  0  0  0  0  0  0  0  0  0
    0.3740    3.7943   -7.9901 C   0  0  0  0  0  0  0  0  0  0  0  0
    0.7000    3.3801   -6.6242 C   0  0  0  0  0  0  0  0  0  0  0  0
    0.1578    3.9167   -5.5051 N   0  0  0  0  0  0  0  0  0  0  0  0
   -0.7565    5.0550   -5.4250 C   0  0  0  0  0  0  0  0  0  0  0  0
   -2.1825    4.5906   -5.2119 C   0  0  0  0  0  0  0  0  0  0  0  0
    1.6071    2.4046   -6.2560 C   0  0  0  0  0  0  0  0  0  0  0  0
    2.5168    1.6688   -7.1496 C   0  0  0  0  0  0  0  0  0  0  0  0
    1.9779    0.2982   -7.6741 C   0  0  0  0  0  0  0  0  0  0  0  0
    0.4559    0.2447   -7.7043 C   0  0  0  0  0  0  0  0  0  0  0  0
    2.5328    0.0114   -9.0885 C   0  0  0  0  0  0  0  0  0  0  0  0
    2.4050   -0.7282   -6.8058 C   0  0  0  0  0  0  0  0  0  0  0  0
    3.8049   -0.5978   -6.2828 O   0  0  0  0  0  0  0  0  0  0  0  0
    4.3599   -1.4792   -5.3933 C   0  0  0  0  0  0  0  0  0  0  0  0
    5.7634   -1.1638   -5.0029 C   0  0  0  0  0  0  0  0  0  0  0  0
    6.1297   -2.0914   -3.9610 N   0  0  0  0  0  0  0  0  0  0  0  0
    7.4221   -1.9851   -3.5411 N   0  0  0  0  0  0  0  0  0  0  0  0
    7.7196   -1.5987   -2.2706 C   0  0  0  0  0  0  0  0  0  0  0  0
    6.5695   -1.3328   -1.3220 C   0  0  0  0  0  0  0  0  0  0  0  0
    6.8902   -1.6635    0.0496 N   0  0  0  0  0  0  0  0  0  0  0  0
    6.6063   -2.8387    0.6219 C   0  0  0  0  0  0  0  0  0  0  0  0
    6.9672   -2.9416    2.0717 C   0  0  0  0  0  0  0  0  0  0  0  0
    7.8849   -4.1359    2.4566 C   0  0  0  0  0  0  0  0  0  0  0  0
    8.1240   -4.1305    3.9650 C   0  0  0  0  0  0  0  0  0  0  0  0
    9.2361   -4.0213    1.7436 C   0  0  0  0  0  0  0  0  0  0  0  0
    5.7412   -3.0345    2.8350 N   0  0  0  0  0  0  0  0  0  0  0  0
    5.3785   -1.9545    3.5668 C   0  0  0  0  0  0  0  0  0  0  0  0
    4.2402   -2.0930    4.5461 C   0  0  0  0  0  0  0  0  0  0  0  0
    4.7639   -2.9023    5.7100 C   0  0  0  0  0  0  0  0  0  0  0  0
    3.7272   -3.0460    6.7656 C   0  0  0  0  0  0  0  0  0  0  0  0
    3.4324   -1.6994    7.1681 N   0  0  0  0  0  0  0  0  0  0  0  0
    3.9589   -1.2833    8.3569 C   0  0  0  0  0  0  0  0  0  0  0  0
    4.2145    0.0835    8.5386 C   0  0  0  0  0  0  0  0  0  0  0  0
    4.0040    1.1789    8.5610 C   0  0  0  0  0  0  0  0  0  0  0  0
    4.6415    2.5313    8.7096 C   0  0  0  0  0  0  0  0  0  0  0  0
    6.0092    2.5507    8.1706 N   0  0  0  0  0  0  0  0  0  0  0  0
    6.0898    2.4867    6.7167 C   0  0  0  0  0  0  0  0  0  0  0  0
    6.9517    1.6257    8.8236 C   0  0  0  0  0  0  0  0  0  0  0  0
    4.7113    2.9037   10.1963 C   0  0  0  0  0  0  0  0  0  0  0  0
    3.7840    3.5731    7.9887 C   0  0  0  0  0  0  0  0  0  0  0  0
    4.2581   -2.0558    9.2427 O   0  0  0  0  0  0  0  0  0  0  0  0
    2.8013   -0.8779    6.1453 C   0  0  0  0  0  0  0  0  0  0  0  0
    3.7686   -0.7155    5.0349 C   0  0  0  0  0  0  0  0  0  0  0  0
    5.9779   -0.8929    3.4654 O   0  0  0  0  0  0  0  0  0  0  0  0
    4.9868   -4.2909    2.7646 C   0  0  0  0  0  0  0  0  0  0  0  0
    6.0558   -3.7465    0.0056 O   0  0  0  0  0  0  0  0  0  0  0  0
    6.2242    0.1487   -1.3678 C   0  0  0  0  0  0  0  0  0  0  0  0
    4.8668    0.4596   -0.8439 C   0  0  0  0  0  0  0  0  0  0  0  0
    3.8792    0.3196   -1.9842 C   0  0  0  0  0  0  0  0  0  0  0  0
    2.6481    0.9597   -1.5828 N   0  0  0  0  0  0  0  0  0  0  0  0
    2.1031    0.4225   -0.3417 C   0  0  0  0  0  0  0  0  0  0  0  0
    3.1653    0.2063    0.7515 C   0  0  0  0  0  0  0  0  0  0  0  0
    4.3932   -0.3449    0.1992 O   0  0  0  0  0  0  0  0  0  0  0  0
    8.8520   -1.3957   -1.9147 O   0  0  0  0  0  0  0  0  0  0  0  0
    8.4443   -2.2132   -4.5846 C   0  0  0  0  0  0  0  0  0  0  0  0
    8.1656   -1.1933   -5.6963 C   0  0  0  0  0  0  0  0  0  0  0  0
    6.7316   -1.2899   -6.1895 C   0  0  0  0  0  0  0  0  0  0  0  0
    3.8419   -2.5004   -4.8813 O   0  0  0  0  0  0  0  0  0  0  0  0
    1.5545    2.3376   -4.8434 C   0  0  0  0  0  0  0  0  0  0  0  0
    0.6367    3.2727   -4.4215 C   0  0  0  0  0  0  0  0  0  0  0  0
    0.3897    3.4326   -3.0274 C   0  0  0  0  0  0  0  0  0  0  0  0
    1.0667    2.6564   -2.1135 C   0  0  0  0  0  0  0  0  0  0  0  0
    1.9763    1.7111   -2.5286 C   0  0  0  0  0  0  0  0  0  0  0  0
    2.2529    1.5517   -3.9138 C   0  0  0  0  0  0  0  0  0  0  0  0
    3.1277   -2.6645    3.9598 F   0  0  0  0  0  0  0  0  0  0  0  0
  1  2  1  0  0  0  0
  2  3  1  0  0  0  0
  2  5  1  0  0  0  0
  3  4  1  0  0  0  0
  5  6  4  0  0  0  0
  5 10  4  0  0  0  0
  6  7  4  0  0  0  0
  7  8  4  0  0  0  0
  8  9  4  0  0  0  0
  9 10  4  0  0  0  0
 10 11  1  0  0  0  0
 11 12  4  0  0  0  0
 11 15  4  0  0  0  0
 12 13  1  0  0  0  0
 12 68  4  0  0  0  0
 13 14  1  0  0  0  0
 15 16  1  0  0  0  0
 15 67  4  0  0  0  0
 16 17  1  0  0  0  0
 17 18  1  0  0  0  0
 17 19  1  0  0  0  0
 17 20  1  0  0  0  0
 20 21  1  0  0  0  0
 21 22  1  0  0  0  0
 22 23  1  0  0  0  0
 22 66  2  0  0  0  0
 23 24  1  0  0  0  0
 23 65  1  0  0  0  0
 24 25  1  0  0  0  0
 25 26  1  0  0  0  0
 25 63  1  0  0  0  0
 26 27  1  0  0  0  0
 26 62  2  0  0  0  0
 27 28  1  0  0  0  0
 27 55  1  0  0  0  0
 28 29  1  0  0  0  0
 29 30  1  0  0  0  0
 29 54  2  0  0  0  0
 30 31  1  0  0  0  0
 30 34  1  0  0  0  0
 31 32  1  0  0  0  0
 31 33  1  0  0  0  0
 34 35  1  0  0  0  0
 34 53  1  0  0  0  0
 35 36  1  0  0  0  0
 35 52  2  0  0  0  0
 36 37  1  0  0  0  0
 36 51  1  0  0  0  0
 36 73  1  0  0  0  0
 37 38  1  0  0  0  0
 38 39  1  0  0  0  0
 39 40  1  0  0  0  0
 39 50  1  0  0  0  0
 40 41  1  0  0  0  0
 40 49  2  0  0  0  0
 41 42  1  0  0  0  0
 42 43  1  0  0  0  0
 43 44  1  0  0  0  0
 43 47  1  0  0  0  0
 43 48  1  0  0  0  0
 44 45  1  0  0  0  0
 44 46  1  0  0  0  0
 50 51  1  0  0  0  0
 55 56  1  0  0  0  0
 56 57  1  0  0  0  0
 56 61  1  0  0  0  0
 57 58  1  0  0  0  0
 58 59  1  0  0  0  0
 58 71  1  0  0  0  0
 59 60  1  0  0  0  0
 60 61  1  0  0  0  0
 63 64  1  0  0  0  0
 64 65  1  0  0  0  0
 67 68  4  0  0  0  0
 67 72  4  0  0  0  0
 68 69  4  0  0  0  0
 69 70  4  0  0  0  0
 70 71  4  0  0  0  0
 71 72  4  0  0  0  0
M  END
$$$$
