mol_ETKDG3_18
  PyMOL3.1          3D                             0

 73 79  0  0  0  0  0  0  0  0999 V2000
    1.3686    6.8478   -8.0329 C   0  0  0  0  0  0  0  0  0  0  0  0
    1.7286    5.3597   -8.0406 C   0  0  0  0  0  0  0  0  0  0  0  0
    2.9019    5.0986   -8.7745 O   0  0  0  0  0  0  0  0  0  0  0  0
    4.1465    5.4946   -8.2162 C   0  0  0  0  0  0  0  0  0  0  0  0
    0.6624    4.5598   -8.6679 C   0  0  0  0  0  0  0  0  0  0  0  0
    0.4086    4.8133   -9.9427 N   0  0  0  0  0  0  0  0  0  0  0  0
   -0.6018    4.2166  -10.5832 C   0  0  0  0  0  0  0  0  0  0  0  0
   -1.4186    3.2997   -9.9234 C   0  0  0  0  0  0  0  0  0  0  0  0
   -1.1467    3.0063   -8.5929 C   0  0  0  0  0  0  0  0  0  0  0  0
   -0.0830    3.6338   -7.9681 C   0  0  0  0  0  0  0  0  0  0  0  0
    0.2487    3.2543   -6.5976 C   0  0  0  0  0  0  0  0  0  0  0  0
   -0.4746    3.5834   -5.4981 N   0  0  0  0  0  0  0  0  0  0  0  0
   -1.6884    4.4228   -5.4454 C   0  0  0  0  0  0  0  0  0  0  0  0
   -1.3139    5.8956   -5.1885 C   0  0  0  0  0  0  0  0  0  0  0  0
    1.3553    2.5065   -6.2146 C   0  0  0  0  0  0  0  0  0  0  0  0
    2.4417    1.9929   -7.0913 C   0  0  0  0  0  0  0  0  0  0  0  0
    2.1492    0.5749   -7.7337 C   0  0  0  0  0  0  0  0  0  0  0  0
    2.9870    0.4043   -9.0277 C   0  0  0  0  0  0  0  0  0  0  0  0
    0.6910    0.3357   -8.0565 C   0  0  0  0  0  0  0  0  0  0  0  0
    2.4736   -0.4447   -6.8032 C   0  0  0  0  0  0  0  0  0  0  0  0
    3.8382   -0.3647   -6.2337 O   0  0  0  0  0  0  0  0  0  0  0  0
    4.3496   -1.3135   -5.3891 C   0  0  0  0  0  0  0  0  0  0  0  0
    5.7540   -1.0496   -4.9780 C   0  0  0  0  0  0  0  0  0  0  0  0
    6.0784   -1.9994   -3.9490 N   0  0  0  0  0  0  0  0  0  0  0  0
    7.3643   -1.9214   -3.5168 N   0  0  0  0  0  0  0  0  0  0  0  0
    7.6454   -1.5259   -2.2412 C   0  0  0  0  0  0  0  0  0  0  0  0
    6.4810   -1.2223   -1.3148 C   0  0  0  0  0  0  0  0  0  0  0  0
    6.7719   -1.5712    0.0611 N   0  0  0  0  0  0  0  0  0  0  0  0
    6.4791   -2.7568    0.6092 C   0  0  0  0  0  0  0  0  0  0  0  0
    6.8225   -2.8804    2.0674 C   0  0  0  0  0  0  0  0  0  0  0  0
    7.7445   -4.0805    2.4396 C   0  0  0  0  0  0  0  0  0  0  0  0
    7.9956   -4.0856    3.9499 C   0  0  0  0  0  0  0  0  0  0  0  0
    9.0872   -3.9621    1.7119 C   0  0  0  0  0  0  0  0  0  0  0  0
    5.5858   -2.9963    2.8124 N   0  0  0  0  0  0  0  0  0  0  0  0
    5.2092   -1.9354    3.5669 C   0  0  0  0  0  0  0  0  0  0  0  0
    4.0711   -2.1368    4.5379 C   0  0  0  0  0  0  0  0  0  0  0  0
    4.6737   -2.8470    5.7308 C   0  0  0  0  0  0  0  0  0  0  0  0
    3.6351   -3.1081    6.7719 C   0  0  0  0  0  0  0  0  0  0  0  0
    3.1471   -1.8060    7.1215 N   0  0  0  0  0  0  0  0  0  0  0  0
    3.6217   -1.2722    8.2821 C   0  0  0  0  0  0  0  0  0  0  0  0
    3.6688    0.1182    8.3845 C   0  0  0  0  0  0  0  0  0  0  0  0
    3.1980    1.2190    8.0722 C   0  0  0  0  0  0  0  0  0  0  0  0
    3.8806    2.5515    8.2621 C   0  0  0  0  0  0  0  0  0  0  0  0
    5.0912    2.6425    7.4485 N   0  0  0  0  0  0  0  0  0  0  0  0
    5.0152    2.3337    6.0504 C   0  0  0  0  0  0  0  0  0  0  0  0
    6.3960    2.5589    8.0530 C   0  0  0  0  0  0  0  0  0  0  0  0
    4.2571    2.7096    9.7441 C   0  0  0  0  0  0  0  0  0  0  0  0
    2.9319    3.6871    7.8748 C   0  0  0  0  0  0  0  0  0  0  0  0
    4.0569   -1.9690    9.1803 O   0  0  0  0  0  0  0  0  0  0  0  0
    2.4268   -1.1107    6.0680 C   0  0  0  0  0  0  0  0  0  0  0  0
    3.4239   -0.8174    4.9714 C   0  0  0  0  0  0  0  0  0  0  0  0
    5.7951   -0.8619    3.5032 O   0  0  0  0  0  0  0  0  0  0  0  0
    4.8470   -4.2618    2.7113 C   0  0  0  0  0  0  0  0  0  0  0  0
    5.9397   -3.6563   -0.0319 O   0  0  0  0  0  0  0  0  0  0  0  0
    6.1851    0.2812   -1.3786 C   0  0  0  0  0  0  0  0  0  0  0  0
    4.8360    0.6683   -0.8539 C   0  0  0  0  0  0  0  0  0  0  0  0
    3.8025    0.5270   -1.9721 C   0  0  0  0  0  0  0  0  0  0  0  0
    2.5583    1.1673   -1.5338 N   0  0  0  0  0  0  0  0  0  0  0  0
    2.0748    0.6301   -0.2596 C   0  0  0  0  0  0  0  0  0  0  0  0
    3.1855    0.5620    0.8149 C   0  0  0  0  0  0  0  0  0  0  0  0
    4.3835   -0.0646    0.2491 O   0  0  0  0  0  0  0  0  0  0  0  0
    8.7785   -1.3476   -1.8682 O   0  0  0  0  0  0  0  0  0  0  0  0
    8.3988   -2.1733   -4.5445 C   0  0  0  0  0  0  0  0  0  0  0  0
    8.1658   -1.1359   -5.6534 C   0  0  0  0  0  0  0  0  0  0  0  0
    6.7335   -1.1940   -6.1615 C   0  0  0  0  0  0  0  0  0  0  0  0
    3.7986   -2.3551   -4.9312 O   0  0  0  0  0  0  0  0  0  0  0  0
    1.2657    2.3839   -4.8108 C   0  0  0  0  0  0  0  0  0  0  0  0
    0.1247    3.0559   -4.4083 C   0  0  0  0  0  0  0  0  0  0  0  0
   -0.1985    3.0996   -3.0217 C   0  0  0  0  0  0  0  0  0  0  0  0
    0.6104    2.4599   -2.0992 C   0  0  0  0  0  0  0  0  0  0  0  0
    1.7524    1.7791   -2.4979 C   0  0  0  0  0  0  0  0  0  0  0  0
    2.0998    1.7412   -3.8771 C   0  0  0  0  0  0  0  0  0  0  0  0
    3.0265   -2.8298    3.9694 F   0  0  0  0  0  0  0  0  0  0  0  0
  1  2  1  0  0  0  0
  2  3  1  0  0  0  0
  2  5  1  0  0  0  0
  3  4  1  0  0  0  0
  5  6  4  0  0  0  0
  5 10  4  0  0  0  0
  6  7  4  0  0  0  0
  7  8  4  0  0  0  0
  8  9  4  0  0  0  0
  9 10  4  0  0  0  0
 10 11  1  0  0  0  0
 11 12  4  0  0  0  0
 11 15  4  0  0  0  0
 12 13  1  0  0  0  0
 12 68  4  0  0  0  0
 13 14  1  0  0  0  0
 15 16  1  0  0  0  0
 15 67  4  0  0  0  0
 16 17  1  0  0  0  0
 17 18  1  0  0  0  0
 17 19  1  0  0  0  0
 17 20  1  0  0  0  0
 20 21  1  0  0  0  0
 21 22  1  0  0  0  0
 22 23  1  0  0  0  0
 22 66  2  0  0  0  0
 23 24  1  0  0  0  0
 23 65  1  0  0  0  0
 24 25  1  0  0  0  0
 25 26  1  0  0  0  0
 25 63  1  0  0  0  0
 26 27  1  0  0  0  0
 26 62  2  0  0  0  0
 27 28  1  0  0  0  0
 27 55  1  0  0  0  0
 28 29  1  0  0  0  0
 29 30  1  0  0  0  0
 29 54  2  0  0  0  0
 30 31  1  0  0  0  0
 30 34  1  0  0  0  0
 31 32  1  0  0  0  0
 31 33  1  0  0  0  0
 34 35  1  0  0  0  0
 34 53  1  0  0  0  0
 35 36  1  0  0  0  0
 35 52  2  0  0  0  0
 36 37  1  0  0  0  0
 36 51  1  0  0  0  0
 36 73  1  0  0  0  0
 37 38  1  0  0  0  0
 38 39  1  0  0  0  0
 39 40  1  0  0  0  0
 39 50  1  0  0  0  0
 40 41  1  0  0  0  0
 40 49  2  0  0  0  0
 41 42  1  0  0  0  0
 42 43  1  0  0  0  0
 43 44  1  0  0  0  0
 43 47  1  0  0  0  0
 43 48  1  0  0  0  0
 44 45  1  0  0  0  0
 44 46  1  0  0  0  0
 50 51  1  0  0  0  0
 55 56  1  0  0  0  0
 56 57  1  0  0  0  0
 56 61  1  0  0  0  0
 57 58  1  0  0  0  0
 58 59  1  0  0  0  0
 58 71  1  0  0  0  0
 59 60  1  0  0  0  0
 60 61  1  0  0  0  0
 63 64  1  0  0  0  0
 64 65  1  0  0  0  0
 67 68  4  0  0  0  0
 67 72  4  0  0  0  0
 68 69  4  0  0  0  0
 69 70  4  0  0  0  0
 70 71  4  0  0  0  0
 71 72  4  0  0  0  0
M  END
$$$$
