mol_ETKDG5_30
  PyMOL3.1          3D                             0

 73 79  0  0  0  0  0  0  0  0999 V2000
    4.4286    7.2930   -7.1252 C   0  0  0  0  0  0  0  0  0  0  0  0
    4.1021    5.8101   -7.0335 C   0  0  0  0  0  0  0  0  0  0  0  0
    5.2569    5.0397   -7.1951 O   0  0  0  0  0  0  0  0  0  0  0  0
    6.1832    5.0090   -6.1034 C   0  0  0  0  0  0  0  0  0  0  0  0
    3.1312    5.4020   -8.0777 C   0  0  0  0  0  0  0  0  0  0  0  0
    3.3557    5.8251   -9.3086 N   0  0  0  0  0  0  0  0  0  0  0  0
    2.4721    5.5941  -10.2810 C   0  0  0  0  0  0  0  0  0  0  0  0
    1.2877    4.8860  -10.0228 C   0  0  0  0  0  0  0  0  0  0  0  0
    1.0627    4.4147   -8.7439 C   0  0  0  0  0  0  0  0  0  0  0  0
    1.9962    4.6690   -7.7698 C   0  0  0  0  0  0  0  0  0  0  0  0
    1.8669    4.0993   -6.4456 C   0  0  0  0  0  0  0  0  0  0  0  0
    1.1598    4.5988   -5.3854 N   0  0  0  0  0  0  0  0  0  0  0  0
    0.3016    5.7706   -5.3674 C   0  0  0  0  0  0  0  0  0  0  0  0
   -1.1706    5.3496   -5.3723 C   0  0  0  0  0  0  0  0  0  0  0  0
    2.5620    2.9869   -6.0394 C   0  0  0  0  0  0  0  0  0  0  0  0
    3.4359    2.1494   -6.8877 C   0  0  0  0  0  0  0  0  0  0  0  0
    2.7039    0.9501   -7.5868 C   0  0  0  0  0  0  0  0  0  0  0  0
    3.2433    0.7615   -9.0262 C   0  0  0  0  0  0  0  0  0  0  0  0
    1.2020    1.1137   -7.6213 C   0  0  0  0  0  0  0  0  0  0  0  0
    2.9296   -0.2354   -6.8547 C   0  0  0  0  0  0  0  0  0  0  0  0
    4.2397   -0.3143   -6.2336 O   0  0  0  0  0  0  0  0  0  0  0  0
    4.6193   -1.3194   -5.4045 C   0  0  0  0  0  0  0  0  0  0  0  0
    6.0114   -1.1556   -4.9682 C   0  0  0  0  0  0  0  0  0  0  0  0
    6.2467   -2.0842   -3.9006 N   0  0  0  0  0  0  0  0  0  0  0  0
    7.5172   -2.0507   -3.4486 N   0  0  0  0  0  0  0  0  0  0  0  0
    7.7980   -1.6432   -2.1908 C   0  0  0  0  0  0  0  0  0  0  0  0
    6.6390   -1.3143   -1.2715 C   0  0  0  0  0  0  0  0  0  0  0  0
    6.9185   -1.6595    0.0919 N   0  0  0  0  0  0  0  0  0  0  0  0
    6.5949   -2.8269    0.6349 C   0  0  0  0  0  0  0  0  0  0  0  0
    6.9284   -2.9237    2.0992 C   0  0  0  0  0  0  0  0  0  0  0  0
    7.8243   -4.1413    2.4823 C   0  0  0  0  0  0  0  0  0  0  0  0
    8.0514   -4.1368    3.9896 C   0  0  0  0  0  0  0  0  0  0  0  0
    9.1606   -4.0582    1.7550 C   0  0  0  0  0  0  0  0  0  0  0  0
    5.6885   -2.9825    2.8240 N   0  0  0  0  0  0  0  0  0  0  0  0
    5.3318   -1.8908    3.5420 C   0  0  0  0  0  0  0  0  0  0  0  0
    4.1508   -1.9897    4.4733 C   0  0  0  0  0  0  0  0  0  0  0  0
    4.5856   -2.8611    5.6169 C   0  0  0  0  0  0  0  0  0  0  0  0
    3.4912   -3.0201    6.6199 C   0  0  0  0  0  0  0  0  0  0  0  0
    3.2490   -1.6959    7.0857 N   0  0  0  0  0  0  0  0  0  0  0  0
    3.7535   -1.4126    8.3085 C   0  0  0  0  0  0  0  0  0  0  0  0
    4.2264   -0.1400    8.5311 C   0  0  0  0  0  0  0  0  0  0  0  0
    4.1218    1.0271    8.7731 C   0  0  0  0  0  0  0  0  0  0  0  0
    5.1518    2.1196    8.8677 C   0  0  0  0  0  0  0  0  0  0  0  0
    5.0931    3.0469    7.7192 N   0  0  0  0  0  0  0  0  0  0  0  0
    4.9819    2.3892    6.4224 C   0  0  0  0  0  0  0  0  0  0  0  0
    6.1612    4.0559    7.7134 C   0  0  0  0  0  0  0  0  0  0  0  0
    6.5858    1.5200    8.9123 C   0  0  0  0  0  0  0  0  0  0  0  0
    4.9007    2.8954   10.1549 C   0  0  0  0  0  0  0  0  0  0  0  0
    3.8689   -2.2462    9.1816 O   0  0  0  0  0  0  0  0  0  0  0  0
    2.7078   -0.7786    6.0874 C   0  0  0  0  0  0  0  0  0  0  0  0
    3.7228   -0.6254    5.0025 C   0  0  0  0  0  0  0  0  0  0  0  0
    5.9653   -0.8478    3.4691 O   0  0  0  0  0  0  0  0  0  0  0  0
    4.9136   -4.2132    2.7228 C   0  0  0  0  0  0  0  0  0  0  0  0
    6.0406   -3.7119    0.0053 O   0  0  0  0  0  0  0  0  0  0  0  0
    6.3953    0.1801   -1.3130 C   0  0  0  0  0  0  0  0  0  0  0  0
    5.0929    0.5907   -0.7309 C   0  0  0  0  0  0  0  0  0  0  0  0
    4.0523    0.4351   -1.8006 C   0  0  0  0  0  0  0  0  0  0  0  0
    2.9199    1.2401   -1.4082 N   0  0  0  0  0  0  0  0  0  0  0  0
    2.3658    0.8671   -0.1210 C   0  0  0  0  0  0  0  0  0  0  0  0
    3.4595    0.6377    0.9502 C   0  0  0  0  0  0  0  0  0  0  0  0
    4.6070   -0.0927    0.3955 O   0  0  0  0  0  0  0  0  0  0  0  0
    8.9294   -1.4657   -1.8203 O   0  0  0  0  0  0  0  0  0  0  0  0
    8.5498   -2.3784   -4.4463 C   0  0  0  0  0  0  0  0  0  0  0  0
    8.3767   -1.3795   -5.6065 C   0  0  0  0  0  0  0  0  0  0  0  0
    6.9787   -1.4107   -6.1260 C   0  0  0  0  0  0  0  0  0  0  0  0
    3.9852   -2.3184   -4.9895 O   0  0  0  0  0  0  0  0  0  0  0  0
    2.2919    2.8550   -4.6575 C   0  0  0  0  0  0  0  0  0  0  0  0
    1.3943    3.8525   -4.2905 C   0  0  0  0  0  0  0  0  0  0  0  0
    0.9714    3.9410   -2.9405 C   0  0  0  0  0  0  0  0  0  0  0  0
    1.4779    3.0591   -2.0067 C   0  0  0  0  0  0  0  0  0  0  0  0
    2.3833    2.0859   -2.3752 C   0  0  0  0  0  0  0  0  0  0  0  0
    2.8063    1.9721   -3.7155 C   0  0  0  0  0  0  0  0  0  0  0  0
    3.0428   -2.4893    3.8136 F   0  0  0  0  0  0  0  0  0  0  0  0
  1  2  1  0  0  0  0
  2  3  1  0  0  0  0
  2  5  1  0  0  0  0
  3  4  1  0  0  0  0
  5  6  4  0  0  0  0
  5 10  4  0  0  0  0
  6  7  4  0  0  0  0
  7  8  4  0  0  0  0
  8  9  4  0  0  0  0
  9 10  4  0  0  0  0
 10 11  1  0  0  0  0
 11 12  4  0  0  0  0
 11 15  4  0  0  0  0
 12 13  1  0  0  0  0
 12 68  4  0  0  0  0
 13 14  1  0  0  0  0
 15 16  1  0  0  0  0
 15 67  4  0  0  0  0
 16 17  1  0  0  0  0
 17 18  1  0  0  0  0
 17 19  1  0  0  0  0
 17 20  1  0  0  0  0
 20 21  1  0  0  0  0
 21 22  1  0  0  0  0
 22 23  1  0  0  0  0
 22 66  2  0  0  0  0
 23 24  1  0  0  0  0
 23 65  1  0  0  0  0
 24 25  1  0  0  0  0
 25 26  1  0  0  0  0
 25 63  1  0  0  0  0
 26 27  1  0  0  0  0
 26 62  2  0  0  0  0
 27 28  1  0  0  0  0
 27 55  1  0  0  0  0
 28 29  1  0  0  0  0
 29 30  1  0  0  0  0
 29 54  2  0  0  0  0
 30 31  1  0  0  0  0
 30 34  1  0  0  0  0
 31 32  1  0  0  0  0
 31 33  1  0  0  0  0
 34 35  1  0  0  0  0
 34 53  1  0  0  0  0
 35 36  1  0  0  0  0
 35 52  2  0  0  0  0
 36 37  1  0  0  0  0
 36 51  1  0  0  0  0
 36 73  1  0  0  0  0
 37 38  1  0  0  0  0
 38 39  1  0  0  0  0
 39 40  1  0  0  0  0
 39 50  1  0  0  0  0
 40 41  1  0  0  0  0
 40 49  2  0  0  0  0
 41 42  1  0  0  0  0
 42 43  1  0  0  0  0
 43 44  1  0  0  0  0
 43 47  1  0  0  0  0
 43 48  1  0  0  0  0
 44 45  1  0  0  0  0
 44 46  1  0  0  0  0
 50 51  1  0  0  0  0
 55 56  1  0  0  0  0
 56 57  1  0  0  0  0
 56 61  1  0  0  0  0
 57 58  1  0  0  0  0
 58 59  1  0  0  0  0
 58 71  1  0  0  0  0
 59 60  1  0  0  0  0
 60 61  1  0  0  0  0
 63 64  1  0  0  0  0
 64 65  1  0  0  0  0
 67 68  4  0  0  0  0
 67 72  4  0  0  0  0
 68 69  4  0  0  0  0
 69 70  4  0  0  0  0
 70 71  4  0  0  0  0
 71 72  4  0  0  0  0
M  END
$$$$
