mol_ETKDG2_15
  PyMOL3.1          3D                             0

 73 79  0  0  0  0  0  0  0  0999 V2000
    2.8968    7.6490   -8.2667 C   0  0  0  0  0  0  0  0  0  0  0  0
    2.9603    6.1658   -7.9800 C   0  0  0  0  0  0  0  0  0  0  0  0
    4.2068    5.6189   -8.2540 O   0  0  0  0  0  0  0  0  0  0  0  0
    5.2392    5.8441   -7.3003 C   0  0  0  0  0  0  0  0  0  0  0  0
    1.9859    5.4090   -8.7935 C   0  0  0  0  0  0  0  0  0  0  0  0
    1.9394    5.6621  -10.0889 N   0  0  0  0  0  0  0  0  0  0  0  0
    0.9951    5.1003  -10.8667 C   0  0  0  0  0  0  0  0  0  0  0  0
    0.0512    4.2345  -10.3240 C   0  0  0  0  0  0  0  0  0  0  0  0
    0.1203    3.9455   -8.9803 C   0  0  0  0  0  0  0  0  0  0  0  0
    1.1182    4.5225   -8.2134 C   0  0  0  0  0  0  0  0  0  0  0  0
    1.2886    4.1364   -6.8293 C   0  0  0  0  0  0  0  0  0  0  0  0
    0.6830    4.7089   -5.7628 N   0  0  0  0  0  0  0  0  0  0  0  0
   -0.2408    5.8388   -5.7749 C   0  0  0  0  0  0  0  0  0  0  0  0
   -1.6794    5.3582   -5.6187 C   0  0  0  0  0  0  0  0  0  0  0  0
    2.1672    3.1554   -6.3980 C   0  0  0  0  0  0  0  0  0  0  0  0
    3.0867    2.3671   -7.2414 C   0  0  0  0  0  0  0  0  0  0  0  0
    2.4981    1.0108   -7.7819 C   0  0  0  0  0  0  0  0  0  0  0  0
    0.9897    1.0078   -7.9304 C   0  0  0  0  0  0  0  0  0  0  0  0
    3.1462    0.6489   -9.1345 C   0  0  0  0  0  0  0  0  0  0  0  0
    2.7616    0.0078   -6.8497 C   0  0  0  0  0  0  0  0  0  0  0  0
    4.1271   -0.0119   -6.2890 O   0  0  0  0  0  0  0  0  0  0  0  0
    4.5726   -1.0167   -5.4644 C   0  0  0  0  0  0  0  0  0  0  0  0
    5.9727   -0.8494   -5.0275 C   0  0  0  0  0  0  0  0  0  0  0  0
    6.1961   -1.8260   -4.0038 N   0  0  0  0  0  0  0  0  0  0  0  0
    7.4691   -1.8657   -3.5508 N   0  0  0  0  0  0  0  0  0  0  0  0
    7.7671   -1.5000   -2.2801 C   0  0  0  0  0  0  0  0  0  0  0  0
    6.6281   -1.1269   -1.3544 C   0  0  0  0  0  0  0  0  0  0  0  0
    6.9093   -1.4886    0.0085 N   0  0  0  0  0  0  0  0  0  0  0  0
    6.6385   -2.6846    0.5482 C   0  0  0  0  0  0  0  0  0  0  0  0
    7.0013   -2.8142    1.9937 C   0  0  0  0  0  0  0  0  0  0  0  0
    7.8571   -4.0497    2.3714 C   0  0  0  0  0  0  0  0  0  0  0  0
    8.1080   -4.0614    3.8800 C   0  0  0  0  0  0  0  0  0  0  0  0
    9.2184   -3.9975    1.6552 C   0  0  0  0  0  0  0  0  0  0  0  0
    5.7877   -2.8261    2.7712 N   0  0  0  0  0  0  0  0  0  0  0  0
    5.4948   -1.7282    3.4633 C   0  0  0  0  0  0  0  0  0  0  0  0
    4.4098   -1.7844    4.5005 C   0  0  0  0  0  0  0  0  0  0  0  0
    4.9673   -2.5911    5.6456 C   0  0  0  0  0  0  0  0  0  0  0  0
    3.9893   -2.7017    6.7544 C   0  0  0  0  0  0  0  0  0  0  0  0
    3.8049   -1.3479    7.1586 N   0  0  0  0  0  0  0  0  0  0  0  0
    4.4933   -0.9817    8.2831 C   0  0  0  0  0  0  0  0  0  0  0  0
    4.9590    0.3474    8.3957 C   0  0  0  0  0  0  0  0  0  0  0  0
    4.5850    1.4917    8.3933 C   0  0  0  0  0  0  0  0  0  0  0  0
    5.4481    2.7190    8.3903 C   0  0  0  0  0  0  0  0  0  0  0  0
    6.5111    2.5405    7.3722 N   0  0  0  0  0  0  0  0  0  0  0  0
    6.0229    2.6514    5.9913 C   0  0  0  0  0  0  0  0  0  0  0  0
    7.7202    3.3562    7.5615 C   0  0  0  0  0  0  0  0  0  0  0  0
    4.6170    3.9710    8.0693 C   0  0  0  0  0  0  0  0  0  0  0  0
    6.0801    2.8720    9.7740 C   0  0  0  0  0  0  0  0  0  0  0  0
    4.7582   -1.7729    9.1644 O   0  0  0  0  0  0  0  0  0  0  0  0
    3.1391   -0.5021    6.1731 C   0  0  0  0  0  0  0  0  0  0  0  0
    4.0252   -0.3925    4.9854 C   0  0  0  0  0  0  0  0  0  0  0  0
    6.1189   -0.6866    3.2934 O   0  0  0  0  0  0  0  0  0  0  0  0
    4.9817   -4.0580    2.7467 C   0  0  0  0  0  0  0  0  0  0  0  0
    6.0941   -3.5826   -0.0846 O   0  0  0  0  0  0  0  0  0  0  0  0
    6.4603    0.3920   -1.4425 C   0  0  0  0  0  0  0  0  0  0  0  0
    5.1943    0.9444   -0.9176 C   0  0  0  0  0  0  0  0  0  0  0  0
    4.2104    1.0515   -2.0663 C   0  0  0  0  0  0  0  0  0  0  0  0
    3.0857    1.8738   -1.6630 N   0  0  0  0  0  0  0  0  0  0  0  0
    2.4830    1.4709   -0.4103 C   0  0  0  0  0  0  0  0  0  0  0  0
    3.4926    1.0529    0.6726 C   0  0  0  0  0  0  0  0  0  0  0  0
    4.5711    0.2510    0.1076 O   0  0  0  0  0  0  0  0  0  0  0  0
    8.9072   -1.3944   -1.8994 O   0  0  0  0  0  0  0  0  0  0  0  0
    8.4803   -2.2058   -4.5600 C   0  0  0  0  0  0  0  0  0  0  0  0
    8.3666   -1.1297   -5.6580 C   0  0  0  0  0  0  0  0  0  0  0  0
    6.9586   -1.0497   -6.1889 C   0  0  0  0  0  0  0  0  0  0  0  0
    3.9754   -2.0397   -5.0468 O   0  0  0  0  0  0  0  0  0  0  0  0
    2.0532    3.1474   -4.9916 C   0  0  0  0  0  0  0  0  0  0  0  0
    1.1122    4.1034   -4.6246 C   0  0  0  0  0  0  0  0  0  0  0  0
    0.8205    4.2980   -3.2552 C   0  0  0  0  0  0  0  0  0  0  0  0
    1.4797    3.5402   -2.2911 C   0  0  0  0  0  0  0  0  0  0  0  0
    2.4179    2.5950   -2.6589 C   0  0  0  0  0  0  0  0  0  0  0  0
    2.7271    2.3936   -4.0241 C   0  0  0  0  0  0  0  0  0  0  0  0
    3.2525   -2.3326    3.9860 F   0  0  0  0  0  0  0  0  0  0  0  0
  1  2  1  0  0  0  0
  2  3  1  0  0  0  0
  2  5  1  0  0  0  0
  3  4  1  0  0  0  0
  5  6  4  0  0  0  0
  5 10  4  0  0  0  0
  6  7  4  0  0  0  0
  7  8  4  0  0  0  0
  8  9  4  0  0  0  0
  9 10  4  0  0  0  0
 10 11  1  0  0  0  0
 11 12  4  0  0  0  0
 11 15  4  0  0  0  0
 12 13  1  0  0  0  0
 12 68  4  0  0  0  0
 13 14  1  0  0  0  0
 15 16  1  0  0  0  0
 15 67  4  0  0  0  0
 16 17  1  0  0  0  0
 17 18  1  0  0  0  0
 17 19  1  0  0  0  0
 17 20  1  0  0  0  0
 20 21  1  0  0  0  0
 21 22  1  0  0  0  0
 22 23  1  0  0  0  0
 22 66  2  0  0  0  0
 23 24  1  0  0  0  0
 23 65  1  0  0  0  0
 24 25  1  0  0  0  0
 25 26  1  0  0  0  0
 25 63  1  0  0  0  0
 26 27  1  0  0  0  0
 26 62  2  0  0  0  0
 27 28  1  0  0  0  0
 27 55  1  0  0  0  0
 28 29  1  0  0  0  0
 29 30  1  0  0  0  0
 29 54  2  0  0  0  0
 30 31  1  0  0  0  0
 30 34  1  0  0  0  0
 31 32  1  0  0  0  0
 31 33  1  0  0  0  0
 34 35  1  0  0  0  0
 34 53  1  0  0  0  0
 35 36  1  0  0  0  0
 35 52  2  0  0  0  0
 36 37  1  0  0  0  0
 36 51  1  0  0  0  0
 36 73  1  0  0  0  0
 37 38  1  0  0  0  0
 38 39  1  0  0  0  0
 39 40  1  0  0  0  0
 39 50  1  0  0  0  0
 40 41  1  0  0  0  0
 40 49  2  0  0  0  0
 41 42  1  0  0  0  0
 42 43  1  0  0  0  0
 43 44  1  0  0  0  0
 43 47  1  0  0  0  0
 43 48  1  0  0  0  0
 44 45  1  0  0  0  0
 44 46  1  0  0  0  0
 50 51  1  0  0  0  0
 55 56  1  0  0  0  0
 56 57  1  0  0  0  0
 56 61  1  0  0  0  0
 57 58  1  0  0  0  0
 58 59  1  0  0  0  0
 58 71  1  0  0  0  0
 59 60  1  0  0  0  0
 60 61  1  0  0  0  0
 63 64  1  0  0  0  0
 64 65  1  0  0  0  0
 67 68  4  0  0  0  0
 67 72  4  0  0  0  0
 68 69  4  0  0  0  0
 69 70  4  0  0  0  0
 70 71  4  0  0  0  0
 71 72  4  0  0  0  0
M  END
$$$$
