mol_bioactive_5
  PyMOL3.1          3D                             0

 73 79  0  0  0  0  0  0  0  0999 V2000
    3.2825    7.0206   -8.6744 C   0  0  0  0  0  0  0  0  0  0  0  0
    2.7242    5.8898   -7.8189 C   0  0  0  0  0  0  0  0  0  0  0  0
    3.7623    5.0063   -7.6542 O   0  0  0  0  0  0  0  0  0  0  0  0
    4.8227    5.4382   -6.7885 C   0  0  0  0  0  0  0  0  0  0  0  0
    1.5378    5.2591   -8.4742 C   0  0  0  0  0  0  0  0  0  0  0  0
    1.3420    5.6277   -9.7246 N   0  0  0  0  0  0  0  0  0  0  0  0
    0.2687    5.2400  -10.4085 C   0  0  0  0  0  0  0  0  0  0  0  0
   -0.6972    4.4218   -9.8285 C   0  0  0  0  0  0  0  0  0  0  0  0
   -0.5098    3.9972   -8.5463 C   0  0  0  0  0  0  0  0  0  0  0  0
    0.6119    4.3897   -7.8640 C   0  0  0  0  0  0  0  0  0  0  0  0
    0.8193    3.8661   -6.5264 C   0  0  0  0  0  0  0  0  0  0  0  0
    0.1109    4.2361   -5.4183 N   0  0  0  0  0  0  0  0  0  0  0  0
   -0.9753    5.2179   -5.3451 C   0  0  0  0  0  0  0  0  0  0  0  0
   -0.4787    6.5185   -4.7049 C   0  0  0  0  0  0  0  0  0  0  0  0
    1.7575    2.9023   -6.1608 C   0  0  0  0  0  0  0  0  0  0  0  0
    2.7659    2.2333   -7.0284 C   0  0  0  0  0  0  0  0  0  0  0  0
    2.2867    0.9009   -7.6976 C   0  0  0  0  0  0  0  0  0  0  0  0
    0.7827    0.8478   -7.9352 C   0  0  0  0  0  0  0  0  0  0  0  0
    3.0306    0.6884   -9.0392 C   0  0  0  0  0  0  0  0  0  0  0  0
    2.5724   -0.2164   -6.8428 C   0  0  0  0  0  0  0  0  0  0  0  0
    3.9274   -0.2125   -6.2649 O   0  0  0  0  0  0  0  0  0  0  0  0
    4.3969   -1.1975   -5.4217 C   0  0  0  0  0  0  0  0  0  0  0  0
    5.8102   -0.9978   -5.0004 C   0  0  0  0  0  0  0  0  0  0  0  0
    6.1035   -1.9790   -3.9816 N   0  0  0  0  0  0  0  0  0  0  0  0
    7.3964   -1.9382   -3.5518 N   0  0  0  0  0  0  0  0  0  0  0  0
    7.6902   -1.5626   -2.2790 C   0  0  0  0  0  0  0  0  0  0  0  0
    6.5341   -1.2771   -1.3428 C   0  0  0  0  0  0  0  0  0  0  0  0
    6.8593   -1.5947    0.0172 N   0  0  0  0  0  0  0  0  0  0  0  0
    6.5772   -2.7646    0.5774 C   0  0  0  0  0  0  0  0  0  0  0  0
    6.9330   -2.8351    2.0296 C   0  0  0  0  0  0  0  0  0  0  0  0
    7.7874   -4.0610    2.4501 C   0  0  0  0  0  0  0  0  0  0  0  0
    8.0371   -4.0090    3.9595 C   0  0  0  0  0  0  0  0  0  0  0  0
    9.1350   -4.0396    1.7177 C   0  0  0  0  0  0  0  0  0  0  0  0
    5.6858   -2.8157    2.7683 N   0  0  0  0  0  0  0  0  0  0  0  0
    5.3730   -1.6692    3.4163 C   0  0  0  0  0  0  0  0  0  0  0  0
    4.2328   -1.6733    4.3916 C   0  0  0  0  0  0  0  0  0  0  0  0
    4.6976   -2.4960    5.5716 C   0  0  0  0  0  0  0  0  0  0  0  0
    3.6610   -2.5526    6.6438 C   0  0  0  0  0  0  0  0  0  0  0  0
    3.5089   -1.1908    7.0337 N   0  0  0  0  0  0  0  0  0  0  0  0
    4.1337   -0.8442    8.1994 C   0  0  0  0  0  0  0  0  0  0  0  0
    4.6487    0.4609    8.3117 C   0  0  0  0  0  0  0  0  0  0  0  0
    4.4794    1.5424    8.6995 C   0  0  0  0  0  0  0  0  0  0  0  0
    5.2868    2.8209    8.6220 C   0  0  0  0  0  0  0  0  0  0  0  0
    6.7351    2.5660    8.8640 N   0  0  0  0  0  0  0  0  0  0  0  0
    7.4422    1.9395    7.7330 C   0  0  0  0  0  0  0  0  0  0  0  0
    7.0438    1.9036   10.1481 C   0  0  0  0  0  0  0  0  0  0  0  0
    5.1144    3.4725    7.2325 C   0  0  0  0  0  0  0  0  0  0  0  0
    4.7592    3.7837    9.6782 C   0  0  0  0  0  0  0  0  0  0  0  0
    4.3040   -1.6211    9.1152 O   0  0  0  0  0  0  0  0  0  0  0  0
    2.9443   -0.3148    6.0042 C   0  0  0  0  0  0  0  0  0  0  0  0
    3.8849   -0.2659    4.8520 C   0  0  0  0  0  0  0  0  0  0  0  0
    6.0272   -0.6495    3.2459 O   0  0  0  0  0  0  0  0  0  0  0  0
    4.8604   -4.0260    2.7511 C   0  0  0  0  0  0  0  0  0  0  0  0
    6.0334   -3.6706   -0.0318 O   0  0  0  0  0  0  0  0  0  0  0  0
    6.1702    0.2076   -1.3720 C   0  0  0  0  0  0  0  0  0  0  0  0
    4.8125    0.5169   -0.8296 C   0  0  0  0  0  0  0  0  0  0  0  0
    3.8575    0.5343   -1.9992 C   0  0  0  0  0  0  0  0  0  0  0  0
    2.6158    1.1602   -1.5717 N   0  0  0  0  0  0  0  0  0  0  0  0
    2.0076    0.5031   -0.4288 C   0  0  0  0  0  0  0  0  0  0  0  0
    3.0358    0.2128    0.6939 C   0  0  0  0  0  0  0  0  0  0  0  0
    4.2629   -0.3615    0.1226 O   0  0  0  0  0  0  0  0  0  0  0  0
    8.8255   -1.3942   -1.9121 O   0  0  0  0  0  0  0  0  0  0  0  0
    8.4133   -2.2055   -4.5815 C   0  0  0  0  0  0  0  0  0  0  0  0
    8.2060   -1.1397   -5.6688 C   0  0  0  0  0  0  0  0  0  0  0  0
    6.7787   -1.1539   -6.1738 C   0  0  0  0  0  0  0  0  0  0  0  0
    3.7926   -2.2036   -4.9780 O   0  0  0  0  0  0  0  0  0  0  0  0
    1.6062    2.7291   -4.7700 C   0  0  0  0  0  0  0  0  0  0  0  0
    0.5765    3.5571   -4.3396 C   0  0  0  0  0  0  0  0  0  0  0  0
    0.2291    3.5750   -2.9617 C   0  0  0  0  0  0  0  0  0  0  0  0
    0.9123    2.7627   -2.0764 C   0  0  0  0  0  0  0  0  0  0  0  0
    1.9316    1.9416   -2.5047 C   0  0  0  0  0  0  0  0  0  0  0  0
    2.3000    1.9159   -3.8692 C   0  0  0  0  0  0  0  0  0  0  0  0
    3.0791   -2.1782    3.8127 F   0  0  0  0  0  0  0  0  0  0  0  0
  1  2  1  0  0  0  0
  2  3  1  0  0  0  0
  2  5  1  0  0  0  0
  3  4  1  0  0  0  0
  5  6  4  0  0  0  0
  5 10  4  0  0  0  0
  6  7  4  0  0  0  0
  7  8  4  0  0  0  0
  8  9  4  0  0  0  0
  9 10  4  0  0  0  0
 10 11  1  0  0  0  0
 11 12  4  0  0  0  0
 11 15  4  0  0  0  0
 12 13  1  0  0  0  0
 12 68  4  0  0  0  0
 13 14  1  0  0  0  0
 15 16  1  0  0  0  0
 15 67  4  0  0  0  0
 16 17  1  0  0  0  0
 17 18  1  0  0  0  0
 17 19  1  0  0  0  0
 17 20  1  0  0  0  0
 20 21  1  0  0  0  0
 21 22  1  0  0  0  0
 22 23  1  0  0  0  0
 22 66  2  0  0  0  0
 23 24  1  0  0  0  0
 23 65  1  0  0  0  0
 24 25  1  0  0  0  0
 25 26  1  0  0  0  0
 25 63  1  0  0  0  0
 26 27  1  0  0  0  0
 26 62  2  0  0  0  0
 27 28  1  0  0  0  0
 27 55  1  0  0  0  0
 28 29  1  0  0  0  0
 29 30  1  0  0  0  0
 29 54  2  0  0  0  0
 30 31  1  0  0  0  0
 30 34  1  0  0  0  0
 31 32  1  0  0  0  0
 31 33  1  0  0  0  0
 34 35  1  0  0  0  0
 34 53  1  0  0  0  0
 35 36  1  0  0  0  0
 35 52  2  0  0  0  0
 36 37  1  0  0  0  0
 36 51  1  0  0  0  0
 36 73  1  0  0  0  0
 37 38  1  0  0  0  0
 38 39  1  0  0  0  0
 39 40  1  0  0  0  0
 39 50  1  0  0  0  0
 40 41  1  0  0  0  0
 40 49  2  0  0  0  0
 41 42  1  0  0  0  0
 42 43  1  0  0  0  0
 43 44  1  0  0  0  0
 43 47  1  0  0  0  0
 43 48  1  0  0  0  0
 44 45  1  0  0  0  0
 44 46  1  0  0  0  0
 50 51  1  0  0  0  0
 55 56  1  0  0  0  0
 56 57  1  0  0  0  0
 56 61  1  0  0  0  0
 57 58  1  0  0  0  0
 58 59  1  0  0  0  0
 58 71  1  0  0  0  0
 59 60  1  0  0  0  0
 60 61  1  0  0  0  0
 63 64  1  0  0  0  0
 64 65  1  0  0  0  0
 67 68  4  0  0  0  0
 67 72  4  0  0  0  0
 68 69  4  0  0  0  0
 69 70  4  0  0  0  0
 70 71  4  0  0  0  0
 71 72  4  0  0  0  0
M  END
$$$$
