mol_bioactive_1
  PyMOL3.1          3D                             0

 73 79  0  0  0  0  0  0  0  0999 V2000
    2.7262    6.8393   -7.9071 C   0  0  0  0  0  0  0  0  0  0  0  0
    2.6187    5.3221   -7.8314 C   0  0  0  0  0  0  0  0  0  0  0  0
    3.6673    4.6917   -8.5054 O   0  0  0  0  0  0  0  0  0  0  0  0
    4.9821    4.8440   -8.0130 C   0  0  0  0  0  0  0  0  0  0  0  0
    1.3936    4.8430   -8.4850 C   0  0  0  0  0  0  0  0  0  0  0  0
    1.1894    5.2567   -9.7250 N   0  0  0  0  0  0  0  0  0  0  0  0
    0.0820    4.9104  -10.3866 C   0  0  0  0  0  0  0  0  0  0  0  0
   -0.8911    4.1015   -9.7889 C   0  0  0  0  0  0  0  0  0  0  0  0
   -0.6751    3.6533   -8.5137 C   0  0  0  0  0  0  0  0  0  0  0  0
    0.4769    4.0223   -7.8532 C   0  0  0  0  0  0  0  0  0  0  0  0
    0.7165    3.5032   -6.5207 C   0  0  0  0  0  0  0  0  0  0  0  0
    0.0790    3.9096   -5.3943 N   0  0  0  0  0  0  0  0  0  0  0  0
   -0.8831    4.9995   -5.2760 C   0  0  0  0  0  0  0  0  0  0  0  0
   -2.3064    4.4537   -5.2403 C   0  0  0  0  0  0  0  0  0  0  0  0
    1.6430    2.5307   -6.1809 C   0  0  0  0  0  0  0  0  0  0  0  0
    2.6356    1.9040   -7.0797 C   0  0  0  0  0  0  0  0  0  0  0  0
    2.1789    0.5924   -7.7609 C   0  0  0  0  0  0  0  0  0  0  0  0
    2.7635    0.4925   -9.1917 C   0  0  0  0  0  0  0  0  0  0  0  0
    0.6654    0.4592   -7.8297 C   0  0  0  0  0  0  0  0  0  0  0  0
    2.6289   -0.5314   -7.0143 C   0  0  0  0  0  0  0  0  0  0  0  0
    3.9578   -0.3984   -6.3772 O   0  0  0  0  0  0  0  0  0  0  0  0
    4.4720   -1.3331   -5.5038 C   0  0  0  0  0  0  0  0  0  0  0  0
    5.8525   -1.0390   -5.0446 C   0  0  0  0  0  0  0  0  0  0  0  0
    6.1693   -2.0025   -4.0169 N   0  0  0  0  0  0  0  0  0  0  0  0
    7.4510   -1.9285   -3.5593 N   0  0  0  0  0  0  0  0  0  0  0  0
    7.7105   -1.5707   -2.2791 C   0  0  0  0  0  0  0  0  0  0  0  0
    6.5398   -1.3521   -1.3484 C   0  0  0  0  0  0  0  0  0  0  0  0
    6.8704   -1.6745    0.0138 N   0  0  0  0  0  0  0  0  0  0  0  0
    6.6102   -2.8510    0.5740 C   0  0  0  0  0  0  0  0  0  0  0  0
    6.9795   -2.9412    2.0249 C   0  0  0  0  0  0  0  0  0  0  0  0
    7.9217   -4.1096    2.4074 C   0  0  0  0  0  0  0  0  0  0  0  0
    8.1726   -4.0873    3.9153 C   0  0  0  0  0  0  0  0  0  0  0  0
    9.2623   -3.9926    1.6838 C   0  0  0  0  0  0  0  0  0  0  0  0
    5.7647   -3.0872    2.7862 N   0  0  0  0  0  0  0  0  0  0  0  0
    5.3756   -2.0537    3.5576 C   0  0  0  0  0  0  0  0  0  0  0  0
    4.2753   -2.2695    4.5517 C   0  0  0  0  0  0  0  0  0  0  0  0
    4.9513   -2.7575    5.8106 C   0  0  0  0  0  0  0  0  0  0  0  0
    3.9546   -2.9789    6.9005 C   0  0  0  0  0  0  0  0  0  0  0  0
    3.3245   -1.6970    7.0703 N   0  0  0  0  0  0  0  0  0  0  0  0
    3.7230   -0.9671    8.1526 C   0  0  0  0  0  0  0  0  0  0  0  0
    3.8538    0.4256    8.0419 C   0  0  0  0  0  0  0  0  0  0  0  0
    3.3677    1.4634    7.5883 C   0  0  0  0  0  0  0  0  0  0  0  0
    4.1163    2.7682    7.4567 C   0  0  0  0  0  0  0  0  0  0  0  0
    5.4299    2.4370    6.8596 N   0  0  0  0  0  0  0  0  0  0  0  0
    5.3758    2.0785    5.4499 C   0  0  0  0  0  0  0  0  0  0  0  0
    6.5318    3.3488    7.1601 C   0  0  0  0  0  0  0  0  0  0  0  0
    4.3110    3.3612    8.8464 C   0  0  0  0  0  0  0  0  0  0  0  0
    3.3647    3.7668    6.5854 C   0  0  0  0  0  0  0  0  0  0  0  0
    4.0532   -1.4949    9.1869 O   0  0  0  0  0  0  0  0  0  0  0  0
    2.5352   -1.2493    5.9346 C   0  0  0  0  0  0  0  0  0  0  0  0
    3.4820   -1.0096    4.7987 C   0  0  0  0  0  0  0  0  0  0  0  0
    5.9332   -0.9651    3.4913 O   0  0  0  0  0  0  0  0  0  0  0  0
    5.0611   -4.3579    2.6719 C   0  0  0  0  0  0  0  0  0  0  0  0
    6.0841   -3.7552   -0.0462 O   0  0  0  0  0  0  0  0  0  0  0  0
    6.1248    0.1162   -1.3712 C   0  0  0  0  0  0  0  0  0  0  0  0
    4.7456    0.3427   -0.8557 C   0  0  0  0  0  0  0  0  0  0  0  0
    3.7832    0.1680   -2.0035 C   0  0  0  0  0  0  0  0  0  0  0  0
    2.5213    0.7442   -1.6093 N   0  0  0  0  0  0  0  0  0  0  0  0
    1.9756    0.1757   -0.3965 C   0  0  0  0  0  0  0  0  0  0  0  0
    3.0350    0.0077    0.7168 C   0  0  0  0  0  0  0  0  0  0  0  0
    4.2947   -0.4951    0.1743 O   0  0  0  0  0  0  0  0  0  0  0  0
    8.8387   -1.3796   -1.9000 O   0  0  0  0  0  0  0  0  0  0  0  0
    8.4980   -2.1442   -4.5757 C   0  0  0  0  0  0  0  0  0  0  0  0
    8.2749   -1.0735   -5.6541 C   0  0  0  0  0  0  0  0  0  0  0  0
    6.8623   -1.1328   -6.1920 C   0  0  0  0  0  0  0  0  0  0  0  0
    3.9378   -2.3842   -5.0662 O   0  0  0  0  0  0  0  0  0  0  0  0
    1.5120    2.3409   -4.7931 C   0  0  0  0  0  0  0  0  0  0  0  0
    0.5244    3.1966   -4.3403 C   0  0  0  0  0  0  0  0  0  0  0  0
    0.1991    3.2227   -2.9621 C   0  0  0  0  0  0  0  0  0  0  0  0
    0.8762    2.3994   -2.0886 C   0  0  0  0  0  0  0  0  0  0  0  0
    1.8534    1.5440   -2.5324 C   0  0  0  0  0  0  0  0  0  0  0  0
    2.2057    1.5113   -3.9056 C   0  0  0  0  0  0  0  0  0  0  0  0
    3.3363   -3.1631    4.1182 F   0  0  0  0  0  0  0  0  0  0  0  0
  1  2  1  0  0  0  0
  2  3  1  0  0  0  0
  2  5  1  0  0  0  0
  3  4  1  0  0  0  0
  5  6  4  0  0  0  0
  5 10  4  0  0  0  0
  6  7  4  0  0  0  0
  7  8  4  0  0  0  0
  8  9  4  0  0  0  0
  9 10  4  0  0  0  0
 10 11  1  0  0  0  0
 11 12  4  0  0  0  0
 11 15  4  0  0  0  0
 12 13  1  0  0  0  0
 12 68  4  0  0  0  0
 13 14  1  0  0  0  0
 15 16  1  0  0  0  0
 15 67  4  0  0  0  0
 16 17  1  0  0  0  0
 17 18  1  0  0  0  0
 17 19  1  0  0  0  0
 17 20  1  0  0  0  0
 20 21  1  0  0  0  0
 21 22  1  0  0  0  0
 22 23  1  0  0  0  0
 22 66  2  0  0  0  0
 23 24  1  0  0  0  0
 23 65  1  0  0  0  0
 24 25  1  0  0  0  0
 25 26  1  0  0  0  0
 25 63  1  0  0  0  0
 26 27  1  0  0  0  0
 26 62  2  0  0  0  0
 27 28  1  0  0  0  0
 27 55  1  0  0  0  0
 28 29  1  0  0  0  0
 29 30  1  0  0  0  0
 29 54  2  0  0  0  0
 30 31  1  0  0  0  0
 30 34  1  0  0  0  0
 31 32  1  0  0  0  0
 31 33  1  0  0  0  0
 34 35  1  0  0  0  0
 34 53  1  0  0  0  0
 35 36  1  0  0  0  0
 35 52  2  0  0  0  0
 36 37  1  0  0  0  0
 36 51  1  0  0  0  0
 36 73  1  0  0  0  0
 37 38  1  0  0  0  0
 38 39  1  0  0  0  0
 39 40  1  0  0  0  0
 39 50  1  0  0  0  0
 40 41  1  0  0  0  0
 40 49  2  0  0  0  0
 41 42  1  0  0  0  0
 42 43  1  0  0  0  0
 43 44  1  0  0  0  0
 43 47  1  0  0  0  0
 43 48  1  0  0  0  0
 44 45  1  0  0  0  0
 44 46  1  0  0  0  0
 50 51  1  0  0  0  0
 55 56  1  0  0  0  0
 56 57  1  0  0  0  0
 56 61  1  0  0  0  0
 57 58  1  0  0  0  0
 58 59  1  0  0  0  0
 58 71  1  0  0  0  0
 59 60  1  0  0  0  0
 60 61  1  0  0  0  0
 63 64  1  0  0  0  0
 64 65  1  0  0  0  0
 67 68  4  0  0  0  0
 67 72  4  0  0  0  0
 68 69  4  0  0  0  0
 69 70  4  0  0  0  0
 70 71  4  0  0  0  0
 71 72  4  0  0  0  0
M  END
$$$$
