mol_ETKDG5_28
  PyMOL3.1          3D                             0

 73 79  0  0  0  0  0  0  0  0999 V2000
    3.9525    7.7297   -7.2558 C   0  0  0  0  0  0  0  0  0  0  0  0
    3.8024    6.2115   -7.3123 C   0  0  0  0  0  0  0  0  0  0  0  0
    4.9541    5.5976   -7.8221 O   0  0  0  0  0  0  0  0  0  0  0  0
    6.1073    5.5569   -6.9917 C   0  0  0  0  0  0  0  0  0  0  0  0
    2.6883    5.8203   -8.1959 C   0  0  0  0  0  0  0  0  0  0  0  0
    2.7167    6.2973   -9.4293 N   0  0  0  0  0  0  0  0  0  0  0  0
    1.7121    6.0691  -10.2748 C   0  0  0  0  0  0  0  0  0  0  0  0
    0.5999    5.3122   -9.8795 C   0  0  0  0  0  0  0  0  0  0  0  0
    0.5775    4.7940   -8.6014 C   0  0  0  0  0  0  0  0  0  0  0  0
    1.6358    5.0432   -7.7524 C   0  0  0  0  0  0  0  0  0  0  0  0
    1.6606    4.4283   -6.4345 C   0  0  0  0  0  0  0  0  0  0  0  0
    0.9858    4.8596   -5.3302 N   0  0  0  0  0  0  0  0  0  0  0  0
    0.1044    6.0140   -5.2269 C   0  0  0  0  0  0  0  0  0  0  0  0
   -1.3545    5.5657   -5.2274 C   0  0  0  0  0  0  0  0  0  0  0  0
    2.4305    3.3362   -6.0904 C   0  0  0  0  0  0  0  0  0  0  0  0
    3.3634    2.6065   -6.9872 C   0  0  0  0  0  0  0  0  0  0  0  0
    2.7200    1.3813   -7.7334 C   0  0  0  0  0  0  0  0  0  0  0  0
    1.2166    1.5126   -7.9198 C   0  0  0  0  0  0  0  0  0  0  0  0
    3.3931    1.1920   -9.1072 C   0  0  0  0  0  0  0  0  0  0  0  0
    2.9103    0.2058   -6.9559 C   0  0  0  0  0  0  0  0  0  0  0  0
    4.2367    0.1087   -6.3066 O   0  0  0  0  0  0  0  0  0  0  0  0
    4.6196   -0.9514   -5.5401 C   0  0  0  0  0  0  0  0  0  0  0  0
    6.0137   -0.8269   -5.0611 C   0  0  0  0  0  0  0  0  0  0  0  0
    6.2172   -1.8307   -4.0466 N   0  0  0  0  0  0  0  0  0  0  0  0
    7.4899   -1.8679   -3.5728 N   0  0  0  0  0  0  0  0  0  0  0  0
    7.7802   -1.5178   -2.2968 C   0  0  0  0  0  0  0  0  0  0  0  0
    6.6232   -1.1977   -1.3761 C   0  0  0  0  0  0  0  0  0  0  0  0
    6.9148   -1.5168   -0.0106 N   0  0  0  0  0  0  0  0  0  0  0  0
    6.5970   -2.6765    0.5599 C   0  0  0  0  0  0  0  0  0  0  0  0
    6.9306   -2.7236    2.0206 C   0  0  0  0  0  0  0  0  0  0  0  0
    7.7706   -3.9635    2.4617 C   0  0  0  0  0  0  0  0  0  0  0  0
    8.0191   -3.8937    3.9650 C   0  0  0  0  0  0  0  0  0  0  0  0
    9.1082   -3.9795    1.7189 C   0  0  0  0  0  0  0  0  0  0  0  0
    5.6916   -2.6761    2.7518 N   0  0  0  0  0  0  0  0  0  0  0  0
    5.4026   -1.5253    3.4034 C   0  0  0  0  0  0  0  0  0  0  0  0
    4.2355   -1.5025    4.3552 C   0  0  0  0  0  0  0  0  0  0  0  0
    4.6412   -2.3264    5.5462 C   0  0  0  0  0  0  0  0  0  0  0  0
    3.5638   -2.3480    6.5750 C   0  0  0  0  0  0  0  0  0  0  0  0
    3.3979   -0.9768    6.9447 N   0  0  0  0  0  0  0  0  0  0  0  0
    3.9018   -0.6101    8.1562 C   0  0  0  0  0  0  0  0  0  0  0  0
    4.2547    0.7366    8.3701 C   0  0  0  0  0  0  0  0  0  0  0  0
    3.9229    1.8674    8.3144 C   0  0  0  0  0  0  0  0  0  0  0  0
    4.7524    3.0988    8.5803 C   0  0  0  0  0  0  0  0  0  0  0  0
    5.8101    3.2620    7.5583 N   0  0  0  0  0  0  0  0  0  0  0  0
    5.3356    3.2477    6.1818 C   0  0  0  0  0  0  0  0  0  0  0  0
    6.7277    4.3898    7.7998 C   0  0  0  0  0  0  0  0  0  0  0  0
    3.8466    4.3328    8.5921 C   0  0  0  0  0  0  0  0  0  0  0  0
    5.4261    2.9528    9.9504 C   0  0  0  0  0  0  0  0  0  0  0  0
    4.0931   -1.4198    9.0382 O   0  0  0  0  0  0  0  0  0  0  0  0
    2.8911   -0.1136    5.8802 C   0  0  0  0  0  0  0  0  0  0  0  0
    3.9002   -0.0832    4.7937 C   0  0  0  0  0  0  0  0  0  0  0  0
    6.0893   -0.5225    3.2568 O   0  0  0  0  0  0  0  0  0  0  0  0
    4.8465   -3.8647    2.7176 C   0  0  0  0  0  0  0  0  0  0  0  0
    6.0420   -3.5835   -0.0428 O   0  0  0  0  0  0  0  0  0  0  0  0
    6.3539    0.2991   -1.4263 C   0  0  0  0  0  0  0  0  0  0  0  0
    5.0406    0.6839   -0.8532 C   0  0  0  0  0  0  0  0  0  0  0  0
    4.0119    0.5682   -1.9455 C   0  0  0  0  0  0  0  0  0  0  0  0
    2.8736    1.3472   -1.5319 N   0  0  0  0  0  0  0  0  0  0  0  0
    2.3066    0.8965   -0.2692 C   0  0  0  0  0  0  0  0  0  0  0  0
    3.3903    0.6320    0.8015 C   0  0  0  0  0  0  0  0  0  0  0  0
    4.5476   -0.0551    0.2300 O   0  0  0  0  0  0  0  0  0  0  0  0
    8.9114   -1.3842   -1.9078 O   0  0  0  0  0  0  0  0  0  0  0  0
    8.5159   -2.1923   -4.5783 C   0  0  0  0  0  0  0  0  0  0  0  0
    8.4130   -1.1001   -5.6648 C   0  0  0  0  0  0  0  0  0  0  0  0
    7.0136   -1.0184   -6.2110 C   0  0  0  0  0  0  0  0  0  0  0  0
    3.9731   -1.9690   -5.2102 O   0  0  0  0  0  0  0  0  0  0  0  0
    2.1984    3.1217   -4.7095 C   0  0  0  0  0  0  0  0  0  0  0  0
    1.2781    4.0731   -4.2757 C   0  0  0  0  0  0  0  0  0  0  0  0
    0.8830    4.0884   -2.9136 C   0  0  0  0  0  0  0  0  0  0  0  0
    1.4220    3.1739   -2.0303 C   0  0  0  0  0  0  0  0  0  0  0  0
    2.3330    2.2362   -2.4565 C   0  0  0  0  0  0  0  0  0  0  0  0
    2.7502    2.2035   -3.8098 C   0  0  0  0  0  0  0  0  0  0  0  0
    3.0864   -1.9789    3.7477 F   0  0  0  0  0  0  0  0  0  0  0  0
  1  2  1  0  0  0  0
  2  3  1  0  0  0  0
  2  5  1  0  0  0  0
  3  4  1  0  0  0  0
  5  6  4  0  0  0  0
  5 10  4  0  0  0  0
  6  7  4  0  0  0  0
  7  8  4  0  0  0  0
  8  9  4  0  0  0  0
  9 10  4  0  0  0  0
 10 11  1  0  0  0  0
 11 12  4  0  0  0  0
 11 15  4  0  0  0  0
 12 13  1  0  0  0  0
 12 68  4  0  0  0  0
 13 14  1  0  0  0  0
 15 16  1  0  0  0  0
 15 67  4  0  0  0  0
 16 17  1  0  0  0  0
 17 18  1  0  0  0  0
 17 19  1  0  0  0  0
 17 20  1  0  0  0  0
 20 21  1  0  0  0  0
 21 22  1  0  0  0  0
 22 23  1  0  0  0  0
 22 66  2  0  0  0  0
 23 24  1  0  0  0  0
 23 65  1  0  0  0  0
 24 25  1  0  0  0  0
 25 26  1  0  0  0  0
 25 63  1  0  0  0  0
 26 27  1  0  0  0  0
 26 62  2  0  0  0  0
 27 28  1  0  0  0  0
 27 55  1  0  0  0  0
 28 29  1  0  0  0  0
 29 30  1  0  0  0  0
 29 54  2  0  0  0  0
 30 31  1  0  0  0  0
 30 34  1  0  0  0  0
 31 32  1  0  0  0  0
 31 33  1  0  0  0  0
 34 35  1  0  0  0  0
 34 53  1  0  0  0  0
 35 36  1  0  0  0  0
 35 52  2  0  0  0  0
 36 37  1  0  0  0  0
 36 51  1  0  0  0  0
 36 73  1  0  0  0  0
 37 38  1  0  0  0  0
 38 39  1  0  0  0  0
 39 40  1  0  0  0  0
 39 50  1  0  0  0  0
 40 41  1  0  0  0  0
 40 49  2  0  0  0  0
 41 42  1  0  0  0  0
 42 43  1  0  0  0  0
 43 44  1  0  0  0  0
 43 47  1  0  0  0  0
 43 48  1  0  0  0  0
 44 45  1  0  0  0  0
 44 46  1  0  0  0  0
 50 51  1  0  0  0  0
 55 56  1  0  0  0  0
 56 57  1  0  0  0  0
 56 61  1  0  0  0  0
 57 58  1  0  0  0  0
 58 59  1  0  0  0  0
 58 71  1  0  0  0  0
 59 60  1  0  0  0  0
 60 61  1  0  0  0  0
 63 64  1  0  0  0  0
 64 65  1  0  0  0  0
 67 68  4  0  0  0  0
 67 72  4  0  0  0  0
 68 69  4  0  0  0  0
 69 70  4  0  0  0  0
 70 71  4  0  0  0  0
 71 72  4  0  0  0  0
M  END
$$$$
