mol_bioactive_3
  PyMOL3.1          3D                             0

 73 79  0  0  0  0  0  0  0  0999 V2000
    2.6669    7.6455   -7.9631 C   0  0  0  0  0  0  0  0  0  0  0  0
    2.5998    6.1357   -7.7273 C   0  0  0  0  0  0  0  0  0  0  0  0
    3.6758    5.4971   -8.3504 O   0  0  0  0  0  0  0  0  0  0  0  0
    4.9754    5.7478   -7.8341 C   0  0  0  0  0  0  0  0  0  0  0  0
    1.3691    5.5727   -8.3081 C   0  0  0  0  0  0  0  0  0  0  0  0
    1.1058    5.9241   -9.5570 N   0  0  0  0  0  0  0  0  0  0  0  0
   -0.0313    5.5472  -10.1517 C   0  0  0  0  0  0  0  0  0  0  0  0
   -0.9708    4.7678   -9.4734 C   0  0  0  0  0  0  0  0  0  0  0  0
   -0.6957    4.3750   -8.1885 C   0  0  0  0  0  0  0  0  0  0  0  0
    0.4904    4.7668   -7.6053 C   0  0  0  0  0  0  0  0  0  0  0  0
    0.7941    4.2787   -6.2739 C   0  0  0  0  0  0  0  0  0  0  0  0
    0.1786    4.6975   -5.1363 N   0  0  0  0  0  0  0  0  0  0  0  0
   -0.7874    5.7825   -5.0136 C   0  0  0  0  0  0  0  0  0  0  0  0
   -2.2005    5.2361   -4.8052 C   0  0  0  0  0  0  0  0  0  0  0  0
    1.7517    3.3239   -5.9464 C   0  0  0  0  0  0  0  0  0  0  0  0
    2.7760    2.7035   -6.8452 C   0  0  0  0  0  0  0  0  0  0  0  0
    2.3428    1.3689   -7.5394 C   0  0  0  0  0  0  0  0  0  0  0  0
    0.8639    1.3229   -7.9063 C   0  0  0  0  0  0  0  0  0  0  0  0
    3.1977    1.1245   -8.8118 C   0  0  0  0  0  0  0  0  0  0  0  0
    2.5542    0.2818   -6.6246 C   0  0  0  0  0  0  0  0  0  0  0  0
    3.9313    0.1988   -6.1005 O   0  0  0  0  0  0  0  0  0  0  0  0
    4.3877   -0.8718   -5.3532 C   0  0  0  0  0  0  0  0  0  0  0  0
    5.8164   -0.7473   -4.9424 C   0  0  0  0  0  0  0  0  0  0  0  0
    6.0621   -1.7612   -3.9421 N   0  0  0  0  0  0  0  0  0  0  0  0
    7.3554   -1.8119   -3.5143 N   0  0  0  0  0  0  0  0  0  0  0  0
    7.6683   -1.4704   -2.2324 C   0  0  0  0  0  0  0  0  0  0  0  0
    6.5290   -1.1434   -1.2865 C   0  0  0  0  0  0  0  0  0  0  0  0
    6.8328   -1.5079    0.0723 N   0  0  0  0  0  0  0  0  0  0  0  0
    6.5331   -2.6941    0.6063 C   0  0  0  0  0  0  0  0  0  0  0  0
    6.9163   -2.8201    2.0557 C   0  0  0  0  0  0  0  0  0  0  0  0
    7.8153   -4.0485    2.3886 C   0  0  0  0  0  0  0  0  0  0  0  0
    8.0944   -4.0821    3.8934 C   0  0  0  0  0  0  0  0  0  0  0  0
    9.1531   -3.9560    1.6426 C   0  0  0  0  0  0  0  0  0  0  0  0
    5.7092   -2.9070    2.8498 N   0  0  0  0  0  0  0  0  0  0  0  0
    5.4032   -1.8510    3.6520 C   0  0  0  0  0  0  0  0  0  0  0  0
    4.3555   -2.0432    4.7166 C   0  0  0  0  0  0  0  0  0  0  0  0
    5.0228   -2.8688    5.7839 C   0  0  0  0  0  0  0  0  0  0  0  0
    4.0849   -3.2032    6.9003 C   0  0  0  0  0  0  0  0  0  0  0  0
    3.7685   -1.9438    7.4561 N   0  0  0  0  0  0  0  0  0  0  0  0
    4.4169   -1.6610    8.6515 C   0  0  0  0  0  0  0  0  0  0  0  0
    4.9877   -0.3835    8.8828 C   0  0  0  0  0  0  0  0  0  0  0  0
    4.6689    0.8090    8.9624 C   0  0  0  0  0  0  0  0  0  0  0  0
    5.5944    1.9975    9.0573 C   0  0  0  0  0  0  0  0  0  0  0  0
    6.5600    1.9283    7.9370 N   0  0  0  0  0  0  0  0  0  0  0  0
    5.9602    2.2116    6.6297 C   0  0  0  0  0  0  0  0  0  0  0  0
    7.8049    2.7008    8.1119 C   0  0  0  0  0  0  0  0  0  0  0  0
    6.3529    1.9238   10.3814 C   0  0  0  0  0  0  0  0  0  0  0  0
    4.8001    3.3013    8.9968 C   0  0  0  0  0  0  0  0  0  0  0  0
    4.5895   -2.5064    9.5062 O   0  0  0  0  0  0  0  0  0  0  0  0
    2.9978   -1.0802    6.5505 C   0  0  0  0  0  0  0  0  0  0  0  0
    3.8519   -0.7563    5.3414 C   0  0  0  0  0  0  0  0  0  0  0  0
    5.9885   -0.7834    3.5525 O   0  0  0  0  0  0  0  0  0  0  0  0
    4.9277   -4.1414    2.7460 C   0  0  0  0  0  0  0  0  0  0  0  0
    5.9760   -3.5663   -0.0298 O   0  0  0  0  0  0  0  0  0  0  0  0
    6.2602    0.3661   -1.3058 C   0  0  0  0  0  0  0  0  0  0  0  0
    4.9389    0.7623   -0.7363 C   0  0  0  0  0  0  0  0  0  0  0  0
    3.9727    0.9129   -1.8916 C   0  0  0  0  0  0  0  0  0  0  0  0
    2.7573    1.5590   -1.4036 N   0  0  0  0  0  0  0  0  0  0  0  0
    2.1383    0.8587   -0.2987 C   0  0  0  0  0  0  0  0  0  0  0  0
    3.1597    0.4698    0.7906 C   0  0  0  0  0  0  0  0  0  0  0  0
    4.3490   -0.1264    0.1768 O   0  0  0  0  0  0  0  0  0  0  0  0
    8.8127   -1.3659   -1.8675 O   0  0  0  0  0  0  0  0  0  0  0  0
    8.3543   -2.1298   -4.5590 C   0  0  0  0  0  0  0  0  0  0  0  0
    8.2034   -1.0431   -5.6397 C   0  0  0  0  0  0  0  0  0  0  0  0
    6.7685   -0.9471   -6.1308 C   0  0  0  0  0  0  0  0  0  0  0  0
    3.7692   -1.9093   -4.9949 O   0  0  0  0  0  0  0  0  0  0  0  0
    1.6498    3.1524   -4.5529 C   0  0  0  0  0  0  0  0  0  0  0  0
    0.6615    4.0037   -4.0826 C   0  0  0  0  0  0  0  0  0  0  0  0
    0.3671    4.0326   -2.6906 C   0  0  0  0  0  0  0  0  0  0  0  0
    1.0709    3.2105   -1.8303 C   0  0  0  0  0  0  0  0  0  0  0  0
    2.0522    2.3608   -2.3029 C   0  0  0  0  0  0  0  0  0  0  0  0
    2.3705    2.3366   -3.6804 C   0  0  0  0  0  0  0  0  0  0  0  0
    3.2325   -2.6388    4.1908 F   0  0  0  0  0  0  0  0  0  0  0  0
  1  2  1  0  0  0  0
  2  3  1  0  0  0  0
  2  5  1  0  0  0  0
  3  4  1  0  0  0  0
  5  6  4  0  0  0  0
  5 10  4  0  0  0  0
  6  7  4  0  0  0  0
  7  8  4  0  0  0  0
  8  9  4  0  0  0  0
  9 10  4  0  0  0  0
 10 11  1  0  0  0  0
 11 12  4  0  0  0  0
 11 15  4  0  0  0  0
 12 13  1  0  0  0  0
 12 68  4  0  0  0  0
 13 14  1  0  0  0  0
 15 16  1  0  0  0  0
 15 67  4  0  0  0  0
 16 17  1  0  0  0  0
 17 18  1  0  0  0  0
 17 19  1  0  0  0  0
 17 20  1  0  0  0  0
 20 21  1  0  0  0  0
 21 22  1  0  0  0  0
 22 23  1  0  0  0  0
 22 66  2  0  0  0  0
 23 24  1  0  0  0  0
 23 65  1  0  0  0  0
 24 25  1  0  0  0  0
 25 26  1  0  0  0  0
 25 63  1  0  0  0  0
 26 27  1  0  0  0  0
 26 62  2  0  0  0  0
 27 28  1  0  0  0  0
 27 55  1  0  0  0  0
 28 29  1  0  0  0  0
 29 30  1  0  0  0  0
 29 54  2  0  0  0  0
 30 31  1  0  0  0  0
 30 34  1  0  0  0  0
 31 32  1  0  0  0  0
 31 33  1  0  0  0  0
 34 35  1  0  0  0  0
 34 53  1  0  0  0  0
 35 36  1  0  0  0  0
 35 52  2  0  0  0  0
 36 37  1  0  0  0  0
 36 51  1  0  0  0  0
 36 73  1  0  0  0  0
 37 38  1  0  0  0  0
 38 39  1  0  0  0  0
 39 40  1  0  0  0  0
 39 50  1  0  0  0  0
 40 41  1  0  0  0  0
 40 49  2  0  0  0  0
 41 42  1  0  0  0  0
 42 43  1  0  0  0  0
 43 44  1  0  0  0  0
 43 47  1  0  0  0  0
 43 48  1  0  0  0  0
 44 45  1  0  0  0  0
 44 46  1  0  0  0  0
 50 51  1  0  0  0  0
 55 56  1  0  0  0  0
 56 57  1  0  0  0  0
 56 61  1  0  0  0  0
 57 58  1  0  0  0  0
 58 59  1  0  0  0  0
 58 71  1  0  0  0  0
 59 60  1  0  0  0  0
 60 61  1  0  0  0  0
 63 64  1  0  0  0  0
 64 65  1  0  0  0  0
 67 68  4  0  0  0  0
 67 72  4  0  0  0  0
 68 69  4  0  0  0  0
 69 70  4  0  0  0  0
 70 71  4  0  0  0  0
 71 72  4  0  0  0  0
M  END
$$$$
