mol_ETKDG1_10
  PyMOL3.1          3D                             0

 73 79  0  0  0  0  0  0  0  0999 V2000
    4.2615    7.6774   -6.7129 C   0  0  0  0  0  0  0  0  0  0  0  0
    4.0234    6.1852   -6.7885 C   0  0  0  0  0  0  0  0  0  0  0  0
    5.1623    5.4844   -7.2109 O   0  0  0  0  0  0  0  0  0  0  0  0
    6.1976    5.2542   -6.2592 C   0  0  0  0  0  0  0  0  0  0  0  0
    2.9503    5.8469   -7.7453 C   0  0  0  0  0  0  0  0  0  0  0  0
    3.0558    6.3364   -8.9798 N   0  0  0  0  0  0  0  0  0  0  0  0
    2.0886    6.1312   -9.8769 C   0  0  0  0  0  0  0  0  0  0  0  0
    0.9499    5.3961   -9.5535 C   0  0  0  0  0  0  0  0  0  0  0  0
    0.8356    4.8664   -8.2849 C   0  0  0  0  0  0  0  0  0  0  0  0
    1.8470    5.0953   -7.3731 C   0  0  0  0  0  0  0  0  0  0  0  0
    1.8025    4.4777   -6.0571 C   0  0  0  0  0  0  0  0  0  0  0  0
    1.1958    4.9759   -4.9407 N   0  0  0  0  0  0  0  0  0  0  0  0
    0.4925    6.2435   -4.8140 C   0  0  0  0  0  0  0  0  0  0  0  0
   -1.0122    6.0289   -4.6704 C   0  0  0  0  0  0  0  0  0  0  0  0
    2.4557    3.3048   -5.7479 C   0  0  0  0  0  0  0  0  0  0  0  0
    3.2816    2.4986   -6.6698 C   0  0  0  0  0  0  0  0  0  0  0  0
    2.5533    1.3201   -7.3997 C   0  0  0  0  0  0  0  0  0  0  0  0
    3.0966    1.1548   -8.8459 C   0  0  0  0  0  0  0  0  0  0  0  0
    1.0472    1.4973   -7.4343 C   0  0  0  0  0  0  0  0  0  0  0  0
    2.7925    0.1052   -6.6823 C   0  0  0  0  0  0  0  0  0  0  0  0
    4.1352    0.0106   -6.1177 O   0  0  0  0  0  0  0  0  0  0  0  0
    4.5463   -1.0501   -5.3469 C   0  0  0  0  0  0  0  0  0  0  0  0
    5.9471   -0.9135   -4.9041 C   0  0  0  0  0  0  0  0  0  0  0  0
    6.1830   -1.9147   -3.8911 N   0  0  0  0  0  0  0  0  0  0  0  0
    7.4566   -1.9164   -3.4350 N   0  0  0  0  0  0  0  0  0  0  0  0
    7.7468   -1.5745   -2.1547 C   0  0  0  0  0  0  0  0  0  0  0  0
    6.5886   -1.3070   -1.2037 C   0  0  0  0  0  0  0  0  0  0  0  0
    6.8847   -1.6616    0.1556 N   0  0  0  0  0  0  0  0  0  0  0  0
    6.5583   -2.8342    0.7109 C   0  0  0  0  0  0  0  0  0  0  0  0
    6.9112   -2.9495    2.1653 C   0  0  0  0  0  0  0  0  0  0  0  0
    7.8402   -4.1341    2.5296 C   0  0  0  0  0  0  0  0  0  0  0  0
    8.0807   -4.1401    4.0409 C   0  0  0  0  0  0  0  0  0  0  0  0
    9.1819   -4.0089    1.7960 C   0  0  0  0  0  0  0  0  0  0  0  0
    5.6821   -3.0830    2.9337 N   0  0  0  0  0  0  0  0  0  0  0  0
    5.2977   -2.0372    3.7077 C   0  0  0  0  0  0  0  0  0  0  0  0
    4.1526   -2.2205    4.6848 C   0  0  0  0  0  0  0  0  0  0  0  0
    4.7320   -2.7885    5.9635 C   0  0  0  0  0  0  0  0  0  0  0  0
    3.6618   -2.9485    7.0378 C   0  0  0  0  0  0  0  0  0  0  0  0
    3.1150   -1.6289    7.2237 N   0  0  0  0  0  0  0  0  0  0  0  0
    3.5783   -0.9249    8.3083 C   0  0  0  0  0  0  0  0  0  0  0  0
    3.9377    0.3836    8.0887 C   0  0  0  0  0  0  0  0  0  0  0  0
    3.6393    1.5414    7.9919 C   0  0  0  0  0  0  0  0  0  0  0  0
    4.5713    2.6552    7.5869 C   0  0  0  0  0  0  0  0  0  0  0  0
    5.7857    2.5587    8.4359 N   0  0  0  0  0  0  0  0  0  0  0  0
    6.9706    3.2269    7.9255 C   0  0  0  0  0  0  0  0  0  0  0  0
    5.5462    2.7668    9.8745 C   0  0  0  0  0  0  0  0  0  0  0  0
    3.8738    4.0027    7.7556 C   0  0  0  0  0  0  0  0  0  0  0  0
    4.9528    2.4878    6.1007 C   0  0  0  0  0  0  0  0  0  0  0  0
    3.7699   -1.4069    9.3948 O   0  0  0  0  0  0  0  0  0  0  0  0
    2.4228   -1.0793    6.0613 C   0  0  0  0  0  0  0  0  0  0  0  0
    3.4455   -0.8848    4.9702 C   0  0  0  0  0  0  0  0  0  0  0  0
    5.8855   -0.9658    3.6466 O   0  0  0  0  0  0  0  0  0  0  0  0
    4.9630   -4.3442    2.8305 C   0  0  0  0  0  0  0  0  0  0  0  0
    5.9921   -3.7163    0.0817 O   0  0  0  0  0  0  0  0  0  0  0  0
    6.3117    0.1831   -1.2242 C   0  0  0  0  0  0  0  0  0  0  0  0
    5.0078    0.5673   -0.6231 C   0  0  0  0  0  0  0  0  0  0  0  0
    3.9258    0.3994   -1.6612 C   0  0  0  0  0  0  0  0  0  0  0  0
    2.8070    1.1950   -1.2227 N   0  0  0  0  0  0  0  0  0  0  0  0
    2.3216    0.8749    0.1000 C   0  0  0  0  0  0  0  0  0  0  0  0
    3.4581    0.5767    1.1247 C   0  0  0  0  0  0  0  0  0  0  0  0
    4.5738   -0.1354    0.5064 O   0  0  0  0  0  0  0  0  0  0  0  0
    8.8880   -1.4130   -1.7913 O   0  0  0  0  0  0  0  0  0  0  0  0
    8.4906   -2.1896   -4.4515 C   0  0  0  0  0  0  0  0  0  0  0  0
    8.3286   -1.1139   -5.5518 C   0  0  0  0  0  0  0  0  0  0  0  0
    6.9169   -1.1005   -6.0718 C   0  0  0  0  0  0  0  0  0  0  0  0
    3.9281   -2.0757   -4.9912 O   0  0  0  0  0  0  0  0  0  0  0  0
    2.2266    3.0974   -4.3598 C   0  0  0  0  0  0  0  0  0  0  0  0
    1.4276    4.1307   -3.8913 C   0  0  0  0  0  0  0  0  0  0  0  0
    1.0620    4.1674   -2.5168 C   0  0  0  0  0  0  0  0  0  0  0  0
    1.5251    3.1913   -1.6570 C   0  0  0  0  0  0  0  0  0  0  0  0
    2.3226    2.1667   -2.1187 C   0  0  0  0  0  0  0  0  0  0  0  0
    2.6963    2.1084   -3.4913 C   0  0  0  0  0  0  0  0  0  0  0  0
    3.1652   -3.0207    4.1791 F   0  0  0  0  0  0  0  0  0  0  0  0
  1  2  1  0  0  0  0
  2  3  1  0  0  0  0
  2  5  1  0  0  0  0
  3  4  1  0  0  0  0
  5  6  4  0  0  0  0
  5 10  4  0  0  0  0
  6  7  4  0  0  0  0
  7  8  4  0  0  0  0
  8  9  4  0  0  0  0
  9 10  4  0  0  0  0
 10 11  1  0  0  0  0
 11 12  4  0  0  0  0
 11 15  4  0  0  0  0
 12 13  1  0  0  0  0
 12 68  4  0  0  0  0
 13 14  1  0  0  0  0
 15 16  1  0  0  0  0
 15 67  4  0  0  0  0
 16 17  1  0  0  0  0
 17 18  1  0  0  0  0
 17 19  1  0  0  0  0
 17 20  1  0  0  0  0
 20 21  1  0  0  0  0
 21 22  1  0  0  0  0
 22 23  1  0  0  0  0
 22 66  2  0  0  0  0
 23 24  1  0  0  0  0
 23 65  1  0  0  0  0
 24 25  1  0  0  0  0
 25 26  1  0  0  0  0
 25 63  1  0  0  0  0
 26 27  1  0  0  0  0
 26 62  2  0  0  0  0
 27 28  1  0  0  0  0
 27 55  1  0  0  0  0
 28 29  1  0  0  0  0
 29 30  1  0  0  0  0
 29 54  2  0  0  0  0
 30 31  1  0  0  0  0
 30 34  1  0  0  0  0
 31 32  1  0  0  0  0
 31 33  1  0  0  0  0
 34 35  1  0  0  0  0
 34 53  1  0  0  0  0
 35 36  1  0  0  0  0
 35 52  2  0  0  0  0
 36 37  1  0  0  0  0
 36 51  1  0  0  0  0
 36 73  1  0  0  0  0
 37 38  1  0  0  0  0
 38 39  1  0  0  0  0
 39 40  1  0  0  0  0
 39 50  1  0  0  0  0
 40 41  1  0  0  0  0
 40 49  2  0  0  0  0
 41 42  1  0  0  0  0
 42 43  1  0  0  0  0
 43 44  1  0  0  0  0
 43 47  1  0  0  0  0
 43 48  1  0  0  0  0
 44 45  1  0  0  0  0
 44 46  1  0  0  0  0
 50 51  1  0  0  0  0
 55 56  1  0  0  0  0
 56 57  1  0  0  0  0
 56 61  1  0  0  0  0
 57 58  1  0  0  0  0
 58 59  1  0  0  0  0
 58 71  1  0  0  0  0
 59 60  1  0  0  0  0
 60 61  1  0  0  0  0
 63 64  1  0  0  0  0
 64 65  1  0  0  0  0
 67 68  4  0  0  0  0
 67 72  4  0  0  0  0
 68 69  4  0  0  0  0
 69 70  4  0  0  0  0
 70 71  4  0  0  0  0
 71 72  4  0  0  0  0
M  END
$$$$
