mol_ETKDG5_26
  PyMOL3.1          3D                             0

 73 79  0  0  0  0  0  0  0  0999 V2000
    3.1735    7.1988   -8.0836 C   0  0  0  0  0  0  0  0  0  0  0  0
    3.0415    5.7028   -7.8387 C   0  0  0  0  0  0  0  0  0  0  0  0
    4.1924    5.0237   -8.2405 O   0  0  0  0  0  0  0  0  0  0  0  0
    5.3594    5.1732   -7.4323 C   0  0  0  0  0  0  0  0  0  0  0  0
    1.9194    5.1430   -8.6142 C   0  0  0  0  0  0  0  0  0  0  0  0
    1.8341    5.5044   -9.8858 N   0  0  0  0  0  0  0  0  0  0  0  0
    0.8123    5.1165  -10.6451 C   0  0  0  0  0  0  0  0  0  0  0  0
   -0.2014    4.3120  -10.1176 C   0  0  0  0  0  0  0  0  0  0  0  0
   -0.1114    3.9141   -8.8034 C   0  0  0  0  0  0  0  0  0  0  0  0
    0.9709    4.3287   -8.0470 C   0  0  0  0  0  0  0  0  0  0  0  0
    1.1086    3.8471   -6.6846 C   0  0  0  0  0  0  0  0  0  0  0  0
    0.4814    4.3610   -5.5915 N   0  0  0  0  0  0  0  0  0  0  0  0
   -0.3969    5.5300   -5.5522 C   0  0  0  0  0  0  0  0  0  0  0  0
   -1.8601    5.1010   -5.4689 C   0  0  0  0  0  0  0  0  0  0  0  0
    1.9391    2.8082   -6.2834 C   0  0  0  0  0  0  0  0  0  0  0  0
    2.8681    2.0332   -7.1354 C   0  0  0  0  0  0  0  0  0  0  0  0
    2.2750    0.7358   -7.7735 C   0  0  0  0  0  0  0  0  0  0  0  0
    2.7218    0.6155   -9.2498 C   0  0  0  0  0  0  0  0  0  0  0  0
    0.7516    0.7062   -7.7037 C   0  0  0  0  0  0  0  0  0  0  0  0
    2.7167   -0.4251   -7.0855 C   0  0  0  0  0  0  0  0  0  0  0  0
    4.0268   -0.3254   -6.3996 O   0  0  0  0  0  0  0  0  0  0  0  0
    4.4797   -1.2582   -5.5040 C   0  0  0  0  0  0  0  0  0  0  0  0
    5.8650   -1.0031   -5.0326 C   0  0  0  0  0  0  0  0  0  0  0  0
    6.1323   -1.9342   -3.9614 N   0  0  0  0  0  0  0  0  0  0  0  0
    7.4104   -1.8938   -3.4926 N   0  0  0  0  0  0  0  0  0  0  0  0
    7.6764   -1.5137   -2.2148 C   0  0  0  0  0  0  0  0  0  0  0  0
    6.4980   -1.2129   -1.3003 C   0  0  0  0  0  0  0  0  0  0  0  0
    6.7827   -1.5434    0.0749 N   0  0  0  0  0  0  0  0  0  0  0  0
    6.4944   -2.7270    0.6295 C   0  0  0  0  0  0  0  0  0  0  0  0
    6.8488   -2.8248    2.0906 C   0  0  0  0  0  0  0  0  0  0  0  0
    7.7585   -4.0510    2.4512 C   0  0  0  0  0  0  0  0  0  0  0  0
    8.0219   -4.0536    3.9579 C   0  0  0  0  0  0  0  0  0  0  0  0
    9.0925   -3.9539    1.7134 C   0  0  0  0  0  0  0  0  0  0  0  0
    5.6430   -2.8981    2.8750 N   0  0  0  0  0  0  0  0  0  0  0  0
    5.3572   -1.8471    3.6866 C   0  0  0  0  0  0  0  0  0  0  0  0
    4.2707   -1.9878    4.7303 C   0  0  0  0  0  0  0  0  0  0  0  0
    4.9405   -2.5468    5.9729 C   0  0  0  0  0  0  0  0  0  0  0  0
    3.9633   -2.6816    7.1087 C   0  0  0  0  0  0  0  0  0  0  0  0
    3.4186   -1.3585    7.3117 N   0  0  0  0  0  0  0  0  0  0  0  0
    3.8266   -0.6553    8.4126 C   0  0  0  0  0  0  0  0  0  0  0  0
    3.8730    0.7534    8.3415 C   0  0  0  0  0  0  0  0  0  0  0  0
    3.3801    1.7897    7.8993 C   0  0  0  0  0  0  0  0  0  0  0  0
    4.0209    3.1565    7.9549 C   0  0  0  0  0  0  0  0  0  0  0  0
    5.4457    3.0328    7.5550 N   0  0  0  0  0  0  0  0  0  0  0  0
    5.6508    2.6514    6.1750 C   0  0  0  0  0  0  0  0  0  0  0  0
    6.3240    4.1334    7.9736 C   0  0  0  0  0  0  0  0  0  0  0  0
    3.9374    3.6688    9.3982 C   0  0  0  0  0  0  0  0  0  0  0  0
    3.2806    4.1358    7.0421 C   0  0  0  0  0  0  0  0  0  0  0  0
    4.2069   -1.2151    9.4131 O   0  0  0  0  0  0  0  0  0  0  0  0
    2.6566   -0.8312    6.1882 C   0  0  0  0  0  0  0  0  0  0  0  0
    3.6015   -0.6569    5.0345 C   0  0  0  0  0  0  0  0  0  0  0  0
    5.9993   -0.8059    3.6262 O   0  0  0  0  0  0  0  0  0  0  0  0
    4.8429   -4.1060    2.7435 C   0  0  0  0  0  0  0  0  0  0  0  0
    5.9635   -3.6298    0.0023 O   0  0  0  0  0  0  0  0  0  0  0  0
    6.1878    0.2781   -1.3393 C   0  0  0  0  0  0  0  0  0  0  0  0
    4.8249    0.6174   -0.8297 C   0  0  0  0  0  0  0  0  0  0  0  0
    3.8703    0.5369   -1.9983 C   0  0  0  0  0  0  0  0  0  0  0  0
    2.6359    1.1947   -1.6169 N   0  0  0  0  0  0  0  0  0  0  0  0
    2.0262    0.6452   -0.4163 C   0  0  0  0  0  0  0  0  0  0  0  0
    3.0597    0.4084    0.7160 C   0  0  0  0  0  0  0  0  0  0  0  0
    4.2927   -0.1920    0.1887 O   0  0  0  0  0  0  0  0  0  0  0  0
    8.8058   -1.3495   -1.8249 O   0  0  0  0  0  0  0  0  0  0  0  0
    8.4570   -2.1840   -4.4885 C   0  0  0  0  0  0  0  0  0  0  0  0
    8.2801   -1.1554   -5.6263 C   0  0  0  0  0  0  0  0  0  0  0  0
    6.8738   -1.1996   -6.1683 C   0  0  0  0  0  0  0  0  0  0  0  0
    3.8933   -2.2681   -5.0550 O   0  0  0  0  0  0  0  0  0  0  0  0
    1.7746    2.7067   -4.8829 C   0  0  0  0  0  0  0  0  0  0  0  0
    0.8472    3.6712   -4.4895 C   0  0  0  0  0  0  0  0  0  0  0  0
    0.5097    3.7866   -3.1181 C   0  0  0  0  0  0  0  0  0  0  0  0
    1.1086    2.9530   -2.1891 C   0  0  0  0  0  0  0  0  0  0  0  0
    2.0254    1.9984   -2.5818 C   0  0  0  0  0  0  0  0  0  0  0  0
    2.3874    1.8707   -3.9400 C   0  0  0  0  0  0  0  0  0  0  0  0
    3.2415   -2.7863    4.3165 F   0  0  0  0  0  0  0  0  0  0  0  0
  1  2  1  0  0  0  0
  2  3  1  0  0  0  0
  2  5  1  0  0  0  0
  3  4  1  0  0  0  0
  5  6  4  0  0  0  0
  5 10  4  0  0  0  0
  6  7  4  0  0  0  0
  7  8  4  0  0  0  0
  8  9  4  0  0  0  0
  9 10  4  0  0  0  0
 10 11  1  0  0  0  0
 11 12  4  0  0  0  0
 11 15  4  0  0  0  0
 12 13  1  0  0  0  0
 12 68  4  0  0  0  0
 13 14  1  0  0  0  0
 15 16  1  0  0  0  0
 15 67  4  0  0  0  0
 16 17  1  0  0  0  0
 17 18  1  0  0  0  0
 17 19  1  0  0  0  0
 17 20  1  0  0  0  0
 20 21  1  0  0  0  0
 21 22  1  0  0  0  0
 22 23  1  0  0  0  0
 22 66  2  0  0  0  0
 23 24  1  0  0  0  0
 23 65  1  0  0  0  0
 24 25  1  0  0  0  0
 25 26  1  0  0  0  0
 25 63  1  0  0  0  0
 26 27  1  0  0  0  0
 26 62  2  0  0  0  0
 27 28  1  0  0  0  0
 27 55  1  0  0  0  0
 28 29  1  0  0  0  0
 29 30  1  0  0  0  0
 29 54  2  0  0  0  0
 30 31  1  0  0  0  0
 30 34  1  0  0  0  0
 31 32  1  0  0  0  0
 31 33  1  0  0  0  0
 34 35  1  0  0  0  0
 34 53  1  0  0  0  0
 35 36  1  0  0  0  0
 35 52  2  0  0  0  0
 36 37  1  0  0  0  0
 36 51  1  0  0  0  0
 36 73  1  0  0  0  0
 37 38  1  0  0  0  0
 38 39  1  0  0  0  0
 39 40  1  0  0  0  0
 39 50  1  0  0  0  0
 40 41  1  0  0  0  0
 40 49  2  0  0  0  0
 41 42  1  0  0  0  0
 42 43  1  0  0  0  0
 43 44  1  0  0  0  0
 43 47  1  0  0  0  0
 43 48  1  0  0  0  0
 44 45  1  0  0  0  0
 44 46  1  0  0  0  0
 50 51  1  0  0  0  0
 55 56  1  0  0  0  0
 56 57  1  0  0  0  0
 56 61  1  0  0  0  0
 57 58  1  0  0  0  0
 58 59  1  0  0  0  0
 58 71  1  0  0  0  0
 59 60  1  0  0  0  0
 60 61  1  0  0  0  0
 63 64  1  0  0  0  0
 64 65  1  0  0  0  0
 67 68  4  0  0  0  0
 67 72  4  0  0  0  0
 68 69  4  0  0  0  0
 69 70  4  0  0  0  0
 70 71  4  0  0  0  0
 71 72  4  0  0  0  0
M  END
$$$$
