mol_ETKDG5_29
  PyMOL3.1          3D                             0

 73 79  0  0  0  0  0  0  0  0999 V2000
    2.7380    7.3650   -7.4234 C   0  0  0  0  0  0  0  0  0  0  0  0
    2.6199    5.8475   -7.4371 C   0  0  0  0  0  0  0  0  0  0  0  0
    3.7211    5.1794   -7.9548 O   0  0  0  0  0  0  0  0  0  0  0  0
    4.1448    5.4734   -9.2843 C   0  0  0  0  0  0  0  0  0  0  0  0
    1.3979    5.3766   -8.1324 C   0  0  0  0  0  0  0  0  0  0  0  0
    1.1230    5.8673   -9.3303 N   0  0  0  0  0  0  0  0  0  0  0  0
    0.0347    5.4925   -9.9965 C   0  0  0  0  0  0  0  0  0  0  0  0
   -0.8569    4.5760   -9.4450 C   0  0  0  0  0  0  0  0  0  0  0  0
   -0.5743    4.0638   -8.2060 C   0  0  0  0  0  0  0  0  0  0  0  0
    0.5716    4.4715   -7.5501 C   0  0  0  0  0  0  0  0  0  0  0  0
    0.8528    3.9106   -6.2494 C   0  0  0  0  0  0  0  0  0  0  0  0
    0.2583    4.3229   -5.1015 N   0  0  0  0  0  0  0  0  0  0  0  0
   -0.6914    5.4234   -4.9355 C   0  0  0  0  0  0  0  0  0  0  0  0
   -2.1200    4.8989   -4.9498 C   0  0  0  0  0  0  0  0  0  0  0  0
    1.7765    2.9139   -5.9621 C   0  0  0  0  0  0  0  0  0  0  0  0
    2.7339    2.2624   -6.9024 C   0  0  0  0  0  0  0  0  0  0  0  0
    2.2319    0.9450   -7.5837 C   0  0  0  0  0  0  0  0  0  0  0  0
    2.8342    0.8128   -9.0059 C   0  0  0  0  0  0  0  0  0  0  0  0
    0.7200    0.8779   -7.6755 C   0  0  0  0  0  0  0  0  0  0  0  0
    2.6236   -0.1842   -6.8244 C   0  0  0  0  0  0  0  0  0  0  0  0
    4.0061   -0.1506   -6.2467 O   0  0  0  0  0  0  0  0  0  0  0  0
    4.4924   -1.1471   -5.4351 C   0  0  0  0  0  0  0  0  0  0  0  0
    5.9097   -0.9388   -5.0164 C   0  0  0  0  0  0  0  0  0  0  0  0
    6.1863   -1.8928   -3.9733 N   0  0  0  0  0  0  0  0  0  0  0  0
    7.4709   -1.8759   -3.5239 N   0  0  0  0  0  0  0  0  0  0  0  0
    7.7637   -1.5038   -2.2480 C   0  0  0  0  0  0  0  0  0  0  0  0
    6.6031   -1.1958   -1.3276 C   0  0  0  0  0  0  0  0  0  0  0  0
    6.8719   -1.5611    0.0403 N   0  0  0  0  0  0  0  0  0  0  0  0
    6.5581   -2.7496    0.5612 C   0  0  0  0  0  0  0  0  0  0  0  0
    6.8299   -2.8647    2.0361 C   0  0  0  0  0  0  0  0  0  0  0  0
    7.7483   -4.0669    2.4326 C   0  0  0  0  0  0  0  0  0  0  0  0
    7.9453   -4.0709    3.9427 C   0  0  0  0  0  0  0  0  0  0  0  0
    9.1042   -3.9650    1.7352 C   0  0  0  0  0  0  0  0  0  0  0  0
    5.5626   -3.0032    2.7043 N   0  0  0  0  0  0  0  0  0  0  0  0
    5.1591   -1.9927    3.5221 C   0  0  0  0  0  0  0  0  0  0  0  0
    3.9384   -2.2247    4.3862 C   0  0  0  0  0  0  0  0  0  0  0  0
    4.3349   -3.2694    5.3813 C   0  0  0  0  0  0  0  0  0  0  0  0
    3.1839   -3.6634    6.2507 C   0  0  0  0  0  0  0  0  0  0  0  0
    2.9251   -2.5083    6.9912 N   0  0  0  0  0  0  0  0  0  0  0  0
    3.3828   -2.5829    8.3008 C   0  0  0  0  0  0  0  0  0  0  0  0
    3.9412   -1.4856    8.8803 C   0  0  0  0  0  0  0  0  0  0  0  0
    3.8625   -0.3120    9.1502 C   0  0  0  0  0  0  0  0  0  0  0  0
    4.9565    0.6385    9.5286 C   0  0  0  0  0  0  0  0  0  0  0  0
    6.1480    0.3433    8.7014 N   0  0  0  0  0  0  0  0  0  0  0  0
    6.0684    0.8016    7.3446 C   0  0  0  0  0  0  0  0  0  0  0  0
    7.4474    0.5386    9.3171 C   0  0  0  0  0  0  0  0  0  0  0  0
    5.2785    0.4370   11.0096 C   0  0  0  0  0  0  0  0  0  0  0  0
    4.5022    2.0814    9.3067 C   0  0  0  0  0  0  0  0  0  0  0  0
    3.3850   -3.6051    8.9479 O   0  0  0  0  0  0  0  0  0  0  0  0
    2.4174   -1.3914    6.1715 C   0  0  0  0  0  0  0  0  0  0  0  0
    3.4730   -0.9957    5.1585 C   0  0  0  0  0  0  0  0  0  0  0  0
    5.7740   -0.9374    3.5949 O   0  0  0  0  0  0  0  0  0  0  0  0
    4.8099   -4.2277    2.4485 C   0  0  0  0  0  0  0  0  0  0  0  0
    6.0494   -3.6362   -0.1049 O   0  0  0  0  0  0  0  0  0  0  0  0
    6.3274    0.3042   -1.3494 C   0  0  0  0  0  0  0  0  0  0  0  0
    4.9915    0.6542   -0.7874 C   0  0  0  0  0  0  0  0  0  0  0  0
    3.9567    0.4738   -1.8749 C   0  0  0  0  0  0  0  0  0  0  0  0
    2.7389    1.1114   -1.4271 N   0  0  0  0  0  0  0  0  0  0  0  0
    2.2521    0.6256   -0.1516 C   0  0  0  0  0  0  0  0  0  0  0  0
    3.3648    0.4626    0.8970 C   0  0  0  0  0  0  0  0  0  0  0  0
    4.5713   -0.1100    0.3103 O   0  0  0  0  0  0  0  0  0  0  0  0
    8.8930   -1.3538   -1.8682 O   0  0  0  0  0  0  0  0  0  0  0  0
    8.4923   -2.1785   -4.5411 C   0  0  0  0  0  0  0  0  0  0  0  0
    8.3077   -1.1402   -5.6654 C   0  0  0  0  0  0  0  0  0  0  0  0
    6.8887   -1.1417   -6.1808 C   0  0  0  0  0  0  0  0  0  0  0  0
    3.9188   -2.1698   -5.0084 O   0  0  0  0  0  0  0  0  0  0  0  0
    1.6851    2.7204   -4.5698 C   0  0  0  0  0  0  0  0  0  0  0  0
    0.7186    3.6006   -4.0752 C   0  0  0  0  0  0  0  0  0  0  0  0
    0.4335    3.6240   -2.6924 C   0  0  0  0  0  0  0  0  0  0  0  0
    1.1191    2.7882   -1.8434 C   0  0  0  0  0  0  0  0  0  0  0  0
    2.0672    1.9216   -2.3273 C   0  0  0  0  0  0  0  0  0  0  0  0
    2.3829    1.8823   -3.7049 C   0  0  0  0  0  0  0  0  0  0  0  0
    2.8692   -2.6005    3.5911 F   0  0  0  0  0  0  0  0  0  0  0  0
  1  2  1  0  0  0  0
  2  3  1  0  0  0  0
  2  5  1  0  0  0  0
  3  4  1  0  0  0  0
  5  6  4  0  0  0  0
  5 10  4  0  0  0  0
  6  7  4  0  0  0  0
  7  8  4  0  0  0  0
  8  9  4  0  0  0  0
  9 10  4  0  0  0  0
 10 11  1  0  0  0  0
 11 12  4  0  0  0  0
 11 15  4  0  0  0  0
 12 13  1  0  0  0  0
 12 68  4  0  0  0  0
 13 14  1  0  0  0  0
 15 16  1  0  0  0  0
 15 67  4  0  0  0  0
 16 17  1  0  0  0  0
 17 18  1  0  0  0  0
 17 19  1  0  0  0  0
 17 20  1  0  0  0  0
 20 21  1  0  0  0  0
 21 22  1  0  0  0  0
 22 23  1  0  0  0  0
 22 66  2  0  0  0  0
 23 24  1  0  0  0  0
 23 65  1  0  0  0  0
 24 25  1  0  0  0  0
 25 26  1  0  0  0  0
 25 63  1  0  0  0  0
 26 27  1  0  0  0  0
 26 62  2  0  0  0  0
 27 28  1  0  0  0  0
 27 55  1  0  0  0  0
 28 29  1  0  0  0  0
 29 30  1  0  0  0  0
 29 54  2  0  0  0  0
 30 31  1  0  0  0  0
 30 34  1  0  0  0  0
 31 32  1  0  0  0  0
 31 33  1  0  0  0  0
 34 35  1  0  0  0  0
 34 53  1  0  0  0  0
 35 36  1  0  0  0  0
 35 52  2  0  0  0  0
 36 37  1  0  0  0  0
 36 51  1  0  0  0  0
 36 73  1  0  0  0  0
 37 38  1  0  0  0  0
 38 39  1  0  0  0  0
 39 40  1  0  0  0  0
 39 50  1  0  0  0  0
 40 41  1  0  0  0  0
 40 49  2  0  0  0  0
 41 42  1  0  0  0  0
 42 43  1  0  0  0  0
 43 44  1  0  0  0  0
 43 47  1  0  0  0  0
 43 48  1  0  0  0  0
 44 45  1  0  0  0  0
 44 46  1  0  0  0  0
 50 51  1  0  0  0  0
 55 56  1  0  0  0  0
 56 57  1  0  0  0  0
 56 61  1  0  0  0  0
 57 58  1  0  0  0  0
 58 59  1  0  0  0  0
 58 71  1  0  0  0  0
 59 60  1  0  0  0  0
 60 61  1  0  0  0  0
 63 64  1  0  0  0  0
 64 65  1  0  0  0  0
 67 68  4  0  0  0  0
 67 72  4  0  0  0  0
 68 69  4  0  0  0  0
 69 70  4  0  0  0  0
 70 71  4  0  0  0  0
 71 72  4  0  0  0  0
M  END
$$$$
