mol_ETKDG2_12
  PyMOL3.1          3D                             0

 73 79  0  0  0  0  0  0  0  0999 V2000
    2.8194    7.8490   -6.3969 C   0  0  0  0  0  0  0  0  0  0  0  0
    2.7924    6.3534   -6.6357 C   0  0  0  0  0  0  0  0  0  0  0  0
    4.0109    5.7548   -6.9671 O   0  0  0  0  0  0  0  0  0  0  0  0
    4.5056    5.8575   -8.3073 C   0  0  0  0  0  0  0  0  0  0  0  0
    1.7330    5.9137   -7.5867 C   0  0  0  0  0  0  0  0  0  0  0  0
    1.6389    6.5158   -8.7627 N   0  0  0  0  0  0  0  0  0  0  0  0
    0.6702    6.1922   -9.6288 C   0  0  0  0  0  0  0  0  0  0  0  0
   -0.2783    5.2224   -9.3037 C   0  0  0  0  0  0  0  0  0  0  0  0
   -0.1843    4.5881   -8.0858 C   0  0  0  0  0  0  0  0  0  0  0  0
    0.8430    4.9328   -7.2228 C   0  0  0  0  0  0  0  0  0  0  0  0
    0.9836    4.2509   -5.9547 C   0  0  0  0  0  0  0  0  0  0  0  0
    0.2943    4.5743   -4.8263 N   0  0  0  0  0  0  0  0  0  0  0  0
   -0.7381    5.6115   -4.6678 C   0  0  0  0  0  0  0  0  0  0  0  0
   -0.1954    6.8197   -3.8829 C   0  0  0  0  0  0  0  0  0  0  0  0
    1.8785    3.2097   -5.6919 C   0  0  0  0  0  0  0  0  0  0  0  0
    2.8626    2.5779   -6.6328 C   0  0  0  0  0  0  0  0  0  0  0  0
    2.3503    1.2850   -7.3979 C   0  0  0  0  0  0  0  0  0  0  0  0
    3.1006    1.1380   -8.7531 C   0  0  0  0  0  0  0  0  0  0  0  0
    0.8563    1.3091   -7.6567 C   0  0  0  0  0  0  0  0  0  0  0  0
    2.5954    0.1064   -6.6007 C   0  0  0  0  0  0  0  0  0  0  0  0
    3.9590   -0.0105   -6.0837 O   0  0  0  0  0  0  0  0  0  0  0  0
    4.3994   -1.0848   -5.3343 C   0  0  0  0  0  0  0  0  0  0  0  0
    5.8252   -0.9609   -4.9296 C   0  0  0  0  0  0  0  0  0  0  0  0
    6.0831   -1.9642   -3.9209 N   0  0  0  0  0  0  0  0  0  0  0  0
    7.3758   -1.9693   -3.4904 N   0  0  0  0  0  0  0  0  0  0  0  0
    7.6809   -1.6193   -2.2131 C   0  0  0  0  0  0  0  0  0  0  0  0
    6.5309   -1.3550   -1.2557 C   0  0  0  0  0  0  0  0  0  0  0  0
    6.8610   -1.7039    0.0951 N   0  0  0  0  0  0  0  0  0  0  0  0
    6.5539   -2.8758    0.6471 C   0  0  0  0  0  0  0  0  0  0  0  0
    6.9205   -2.9862    2.0948 C   0  0  0  0  0  0  0  0  0  0  0  0
    7.8056   -4.2044    2.4633 C   0  0  0  0  0  0  0  0  0  0  0  0
    8.0399   -4.2260    3.9758 C   0  0  0  0  0  0  0  0  0  0  0  0
    9.1590   -4.1035    1.7411 C   0  0  0  0  0  0  0  0  0  0  0  0
    5.6976   -3.0126    2.8738 N   0  0  0  0  0  0  0  0  0  0  0  0
    5.3863   -1.9098    3.5720 C   0  0  0  0  0  0  0  0  0  0  0  0
    4.2845   -1.9713    4.6017 C   0  0  0  0  0  0  0  0  0  0  0  0
    4.9169   -2.5439    5.8516 C   0  0  0  0  0  0  0  0  0  0  0  0
    3.9354   -2.6039    6.9760 C   0  0  0  0  0  0  0  0  0  0  0  0
    3.5130   -1.2345    7.1701 N   0  0  0  0  0  0  0  0  0  0  0  0
    4.0405   -0.5709    8.2610 C   0  0  0  0  0  0  0  0  0  0  0  0
    4.3390    0.8268    8.1903 C   0  0  0  0  0  0  0  0  0  0  0  0
    3.9333    1.9360    7.8994 C   0  0  0  0  0  0  0  0  0  0  0  0
    4.7142    3.2275    7.8194 C   0  0  0  0  0  0  0  0  0  0  0  0
    5.9394    2.9993    6.9898 N   0  0  0  0  0  0  0  0  0  0  0  0
    5.6538    2.6993    5.5727 C   0  0  0  0  0  0  0  0  0  0  0  0
    6.9913    4.0291    7.0964 C   0  0  0  0  0  0  0  0  0  0  0  0
    5.1387    3.6446    9.2373 C   0  0  0  0  0  0  0  0  0  0  0  0
    3.8597    4.3482    7.2125 C   0  0  0  0  0  0  0  0  0  0  0  0
    4.3311   -1.1583    9.2795 O   0  0  0  0  0  0  0  0  0  0  0  0
    2.7641   -0.6766    6.0483 C   0  0  0  0  0  0  0  0  0  0  0  0
    3.6940   -0.5887    4.8717 C   0  0  0  0  0  0  0  0  0  0  0  0
    6.0165   -0.8633    3.4244 O   0  0  0  0  0  0  0  0  0  0  0  0
    4.9063   -4.2526    2.8349 C   0  0  0  0  0  0  0  0  0  0  0  0
    5.9798   -3.7683    0.0280 O   0  0  0  0  0  0  0  0  0  0  0  0
    6.1923    0.1323   -1.2496 C   0  0  0  0  0  0  0  0  0  0  0  0
    4.8668    0.4457   -0.6375 C   0  0  0  0  0  0  0  0  0  0  0  0
    3.8503    0.4516   -1.7481 C   0  0  0  0  0  0  0  0  0  0  0  0
    2.6549    1.1079   -1.2576 N   0  0  0  0  0  0  0  0  0  0  0  0
    2.0970    0.4519   -0.0883 C   0  0  0  0  0  0  0  0  0  0  0  0
    3.1760    0.1464    0.9797 C   0  0  0  0  0  0  0  0  0  0  0  0
    4.3699   -0.4342    0.3474 O   0  0  0  0  0  0  0  0  0  0  0  0
    8.8222   -1.4521   -1.8505 O   0  0  0  0  0  0  0  0  0  0  0  0
    8.3831   -2.2669   -4.5217 C   0  0  0  0  0  0  0  0  0  0  0  0
    8.2075   -1.1941   -5.6303 C   0  0  0  0  0  0  0  0  0  0  0  0
    6.7782   -1.1628   -6.1220 C   0  0  0  0  0  0  0  0  0  0  0  0
    3.7688   -2.1028   -4.9679 O   0  0  0  0  0  0  0  0  0  0  0  0
    1.7089    2.9351   -4.3199 C   0  0  0  0  0  0  0  0  0  0  0  0
    0.7183    3.7865   -3.8119 C   0  0  0  0  0  0  0  0  0  0  0  0
    0.3765    3.7228   -2.4386 C   0  0  0  0  0  0  0  0  0  0  0  0
    1.0198    2.8167   -1.6112 C   0  0  0  0  0  0  0  0  0  0  0  0
    1.9974    1.9801   -2.1195 C   0  0  0  0  0  0  0  0  0  0  0  0
    2.3581    2.0237   -3.4849 C   0  0  0  0  0  0  0  0  0  0  0  0
    3.2143   -2.7244    4.1721 F   0  0  0  0  0  0  0  0  0  0  0  0
  1  2  1  0  0  0  0
  2  3  1  0  0  0  0
  2  5  1  0  0  0  0
  3  4  1  0  0  0  0
  5  6  4  0  0  0  0
  5 10  4  0  0  0  0
  6  7  4  0  0  0  0
  7  8  4  0  0  0  0
  8  9  4  0  0  0  0
  9 10  4  0  0  0  0
 10 11  1  0  0  0  0
 11 12  4  0  0  0  0
 11 15  4  0  0  0  0
 12 13  1  0  0  0  0
 12 68  4  0  0  0  0
 13 14  1  0  0  0  0
 15 16  1  0  0  0  0
 15 67  4  0  0  0  0
 16 17  1  0  0  0  0
 17 18  1  0  0  0  0
 17 19  1  0  0  0  0
 17 20  1  0  0  0  0
 20 21  1  0  0  0  0
 21 22  1  0  0  0  0
 22 23  1  0  0  0  0
 22 66  2  0  0  0  0
 23 24  1  0  0  0  0
 23 65  1  0  0  0  0
 24 25  1  0  0  0  0
 25 26  1  0  0  0  0
 25 63  1  0  0  0  0
 26 27  1  0  0  0  0
 26 62  2  0  0  0  0
 27 28  1  0  0  0  0
 27 55  1  0  0  0  0
 28 29  1  0  0  0  0
 29 30  1  0  0  0  0
 29 54  2  0  0  0  0
 30 31  1  0  0  0  0
 30 34  1  0  0  0  0
 31 32  1  0  0  0  0
 31 33  1  0  0  0  0
 34 35  1  0  0  0  0
 34 53  1  0  0  0  0
 35 36  1  0  0  0  0
 35 52  2  0  0  0  0
 36 37  1  0  0  0  0
 36 51  1  0  0  0  0
 36 73  1  0  0  0  0
 37 38  1  0  0  0  0
 38 39  1  0  0  0  0
 39 40  1  0  0  0  0
 39 50  1  0  0  0  0
 40 41  1  0  0  0  0
 40 49  2  0  0  0  0
 41 42  1  0  0  0  0
 42 43  1  0  0  0  0
 43 44  1  0  0  0  0
 43 47  1  0  0  0  0
 43 48  1  0  0  0  0
 44 45  1  0  0  0  0
 44 46  1  0  0  0  0
 50 51  1  0  0  0  0
 55 56  1  0  0  0  0
 56 57  1  0  0  0  0
 56 61  1  0  0  0  0
 57 58  1  0  0  0  0
 58 59  1  0  0  0  0
 58 71  1  0  0  0  0
 59 60  1  0  0  0  0
 60 61  1  0  0  0  0
 63 64  1  0  0  0  0
 64 65  1  0  0  0  0
 67 68  4  0  0  0  0
 67 72  4  0  0  0  0
 68 69  4  0  0  0  0
 69 70  4  0  0  0  0
 70 71  4  0  0  0  0
 71 72  4  0  0  0  0
M  END
$$$$
