mol_ETKDG0_35
  PyMOL3.1          3D                             0

 73 79  0  0  0  0  0  0  0  0999 V2000
    3.3000    6.9032   -7.7217 C   0  0  0  0  0  0  0  0  0  0  0  0
    3.0902    5.4089   -7.6592 C   0  0  0  0  0  0  0  0  0  0  0  0
    4.1000    4.6907   -8.3196 O   0  0  0  0  0  0  0  0  0  0  0  0
    5.3812    4.6301   -7.7090 C   0  0  0  0  0  0  0  0  0  0  0  0
    1.8324    5.0178   -8.3214 C   0  0  0  0  0  0  0  0  0  0  0  0
    1.6737    5.4151   -9.5732 N   0  0  0  0  0  0  0  0  0  0  0  0
    0.5352    5.1540  -10.2291 C   0  0  0  0  0  0  0  0  0  0  0  0
   -0.5081    4.4526   -9.6061 C   0  0  0  0  0  0  0  0  0  0  0  0
   -0.3412    4.0187   -8.3112 C   0  0  0  0  0  0  0  0  0  0  0  0
    0.8480    4.3095   -7.6664 C   0  0  0  0  0  0  0  0  0  0  0  0
    1.0569    3.8172   -6.3211 C   0  0  0  0  0  0  0  0  0  0  0  0
    0.5472    4.3708   -5.1857 N   0  0  0  0  0  0  0  0  0  0  0  0
   -0.2581    5.5817   -5.0830 C   0  0  0  0  0  0  0  0  0  0  0  0
   -1.7129    5.2315   -4.8193 C   0  0  0  0  0  0  0  0  0  0  0  0
    1.8577    2.7399   -5.9832 C   0  0  0  0  0  0  0  0  0  0  0  0
    2.6850    1.9398   -6.9009 C   0  0  0  0  0  0  0  0  0  0  0  0
    2.0137    0.6393   -7.4621 C   0  0  0  0  0  0  0  0  0  0  0  0
    2.4050    0.4257   -8.9438 C   0  0  0  0  0  0  0  0  0  0  0  0
    0.4997    0.6744   -7.3239 C   0  0  0  0  0  0  0  0  0  0  0  0
    2.4466   -0.4853   -6.7433 C   0  0  0  0  0  0  0  0  0  0  0  0
    3.8322   -0.3974   -6.1961 O   0  0  0  0  0  0  0  0  0  0  0  0
    4.3580   -1.3170   -5.3386 C   0  0  0  0  0  0  0  0  0  0  0  0
    5.7682   -1.0457   -4.9449 C   0  0  0  0  0  0  0  0  0  0  0  0
    6.1100   -2.0208   -3.9475 N   0  0  0  0  0  0  0  0  0  0  0  0
    7.4032   -1.9532   -3.5322 N   0  0  0  0  0  0  0  0  0  0  0  0
    7.7192   -1.5820   -2.2706 C   0  0  0  0  0  0  0  0  0  0  0  0
    6.5731   -1.2797   -1.3308 C   0  0  0  0  0  0  0  0  0  0  0  0
    6.8610   -1.6392    0.0351 N   0  0  0  0  0  0  0  0  0  0  0  0
    6.5300   -2.7979    0.5722 C   0  0  0  0  0  0  0  0  0  0  0  0
    6.8705   -2.9049    2.0258 C   0  0  0  0  0  0  0  0  0  0  0  0
    7.7585   -4.1205    2.4020 C   0  0  0  0  0  0  0  0  0  0  0  0
    8.0014   -4.1238    3.9121 C   0  0  0  0  0  0  0  0  0  0  0  0
    9.1139   -4.0275    1.6838 C   0  0  0  0  0  0  0  0  0  0  0  0
    5.6272   -2.9473    2.7672 N   0  0  0  0  0  0  0  0  0  0  0  0
    5.3079   -1.8548    3.5021 C   0  0  0  0  0  0  0  0  0  0  0  0
    4.1677   -1.9527    4.4872 C   0  0  0  0  0  0  0  0  0  0  0  0
    4.5942   -2.9526    5.5245 C   0  0  0  0  0  0  0  0  0  0  0  0
    3.5409   -3.1479    6.5490 C   0  0  0  0  0  0  0  0  0  0  0  0
    3.4407   -1.8926    7.1797 N   0  0  0  0  0  0  0  0  0  0  0  0
    3.9768   -1.8510    8.4380 C   0  0  0  0  0  0  0  0  0  0  0  0
    4.4664   -0.6419    8.9299 C   0  0  0  0  0  0  0  0  0  0  0  0
    4.3229    0.4191    9.3432 C   0  0  0  0  0  0  0  0  0  0  0  0
    5.2639    1.4987    9.8207 C   0  0  0  0  0  0  0  0  0  0  0  0
    5.0382    2.7501    9.0584 N   0  0  0  0  0  0  0  0  0  0  0  0
    5.2393    2.5812    7.6204 C   0  0  0  0  0  0  0  0  0  0  0  0
    5.7721    3.8979    9.5774 C   0  0  0  0  0  0  0  0  0  0  0  0
    4.9834    1.7193   11.3011 C   0  0  0  0  0  0  0  0  0  0  0  0
    6.7241    1.0608    9.6189 C   0  0  0  0  0  0  0  0  0  0  0  0
    4.0858   -2.8435    9.1329 O   0  0  0  0  0  0  0  0  0  0  0  0
    2.9449   -0.8145    6.3201 C   0  0  0  0  0  0  0  0  0  0  0  0
    3.8876   -0.6201    5.1774 C   0  0  0  0  0  0  0  0  0  0  0  0
    5.9401   -0.8139    3.4083 O   0  0  0  0  0  0  0  0  0  0  0  0
    4.8123   -4.1645    2.6654 C   0  0  0  0  0  0  0  0  0  0  0  0
    5.9645   -3.6872   -0.0501 O   0  0  0  0  0  0  0  0  0  0  0  0
    6.3067    0.2129   -1.3490 C   0  0  0  0  0  0  0  0  0  0  0  0
    4.9890    0.5738   -0.7660 C   0  0  0  0  0  0  0  0  0  0  0  0
    3.9342    0.3839   -1.8255 C   0  0  0  0  0  0  0  0  0  0  0  0
    2.7670    1.1038   -1.3933 N   0  0  0  0  0  0  0  0  0  0  0  0
    2.2703    0.6713   -0.0993 C   0  0  0  0  0  0  0  0  0  0  0  0
    3.4016    0.5012    0.9453 C   0  0  0  0  0  0  0  0  0  0  0  0
    4.5652   -0.1532    0.3531 O   0  0  0  0  0  0  0  0  0  0  0  0
    8.8561   -1.4191   -1.9135 O   0  0  0  0  0  0  0  0  0  0  0  0
    8.4143   -2.1932   -4.5780 C   0  0  0  0  0  0  0  0  0  0  0  0
    8.1743   -1.1128   -5.6557 C   0  0  0  0  0  0  0  0  0  0  0  0
    6.7379   -1.1482   -6.1363 C   0  0  0  0  0  0  0  0  0  0  0  0
    3.8144   -2.3431   -4.8459 O   0  0  0  0  0  0  0  0  0  0  0  0
    1.7855    2.6484   -4.5776 C   0  0  0  0  0  0  0  0  0  0  0  0
    0.9515    3.6597   -4.1149 C   0  0  0  0  0  0  0  0  0  0  0  0
    0.7242    3.7990   -2.7294 C   0  0  0  0  0  0  0  0  0  0  0  0
    1.3346    2.9387   -1.8454 C   0  0  0  0  0  0  0  0  0  0  0  0
    2.1522    1.9359   -2.3060 C   0  0  0  0  0  0  0  0  0  0  0  0
    2.4082    1.7810   -3.6883 C   0  0  0  0  0  0  0  0  0  0  0  0
    2.9951   -2.3146    3.8432 F   0  0  0  0  0  0  0  0  0  0  0  0
  1  2  1  0  0  0  0
  2  3  1  0  0  0  0
  2  5  1  0  0  0  0
  3  4  1  0  0  0  0
  5  6  4  0  0  0  0
  5 10  4  0  0  0  0
  6  7  4  0  0  0  0
  7  8  4  0  0  0  0
  8  9  4  0  0  0  0
  9 10  4  0  0  0  0
 10 11  1  0  0  0  0
 11 12  4  0  0  0  0
 11 15  4  0  0  0  0
 12 13  1  0  0  0  0
 12 68  4  0  0  0  0
 13 14  1  0  0  0  0
 15 16  1  0  0  0  0
 15 67  4  0  0  0  0
 16 17  1  0  0  0  0
 17 18  1  0  0  0  0
 17 19  1  0  0  0  0
 17 20  1  0  0  0  0
 20 21  1  0  0  0  0
 21 22  1  0  0  0  0
 22 23  1  0  0  0  0
 22 66  2  0  0  0  0
 23 24  1  0  0  0  0
 23 65  1  0  0  0  0
 24 25  1  0  0  0  0
 25 26  1  0  0  0  0
 25 63  1  0  0  0  0
 26 27  1  0  0  0  0
 26 62  2  0  0  0  0
 27 28  1  0  0  0  0
 27 55  1  0  0  0  0
 28 29  1  0  0  0  0
 29 30  1  0  0  0  0
 29 54  2  0  0  0  0
 30 31  1  0  0  0  0
 30 34  1  0  0  0  0
 31 32  1  0  0  0  0
 31 33  1  0  0  0  0
 34 35  1  0  0  0  0
 34 53  1  0  0  0  0
 35 36  1  0  0  0  0
 35 52  2  0  0  0  0
 36 37  1  0  0  0  0
 36 51  1  0  0  0  0
 36 73  1  0  0  0  0
 37 38  1  0  0  0  0
 38 39  1  0  0  0  0
 39 40  1  0  0  0  0
 39 50  1  0  0  0  0
 40 41  1  0  0  0  0
 40 49  2  0  0  0  0
 41 42  1  0  0  0  0
 42 43  1  0  0  0  0
 43 44  1  0  0  0  0
 43 47  1  0  0  0  0
 43 48  1  0  0  0  0
 44 45  1  0  0  0  0
 44 46  1  0  0  0  0
 50 51  1  0  0  0  0
 55 56  1  0  0  0  0
 56 57  1  0  0  0  0
 56 61  1  0  0  0  0
 57 58  1  0  0  0  0
 58 59  1  0  0  0  0
 58 71  1  0  0  0  0
 59 60  1  0  0  0  0
 60 61  1  0  0  0  0
 63 64  1  0  0  0  0
 64 65  1  0  0  0  0
 67 68  4  0  0  0  0
 67 72  4  0  0  0  0
 68 69  4  0  0  0  0
 69 70  4  0  0  0  0
 70 71  4  0  0  0  0
 71 72  4  0  0  0  0
M  END
$$$$
