mol_ETKDG1_8
  PyMOL3.1          3D                             0

 73 79  0  0  0  0  0  0  0  0999 V2000
    1.9664    6.7519   -7.9595 C   0  0  0  0  0  0  0  0  0  0  0  0
    2.1314    5.2472   -8.0566 C   0  0  0  0  0  0  0  0  0  0  0  0
    3.1661    4.8681   -8.9223 O   0  0  0  0  0  0  0  0  0  0  0  0
    4.4873    5.1434   -8.5125 C   0  0  0  0  0  0  0  0  0  0  0  0
    0.9194    4.6214   -8.5960 C   0  0  0  0  0  0  0  0  0  0  0  0
    0.5838    4.9544   -9.8387 N   0  0  0  0  0  0  0  0  0  0  0  0
   -0.5310    4.4824  -10.3867 C   0  0  0  0  0  0  0  0  0  0  0  0
   -1.3757    3.6327   -9.6837 C   0  0  0  0  0  0  0  0  0  0  0  0
   -1.0328    3.2684   -8.4127 C   0  0  0  0  0  0  0  0  0  0  0  0
    0.1329    3.7652   -7.8574 C   0  0  0  0  0  0  0  0  0  0  0  0
    0.4971    3.3461   -6.5144 C   0  0  0  0  0  0  0  0  0  0  0  0
   -0.0822    3.8156   -5.3852 N   0  0  0  0  0  0  0  0  0  0  0  0
   -1.0850    4.8654   -5.2693 C   0  0  0  0  0  0  0  0  0  0  0  0
   -2.4756    4.2677   -5.0852 C   0  0  0  0  0  0  0  0  0  0  0  0
    1.4873    2.4345   -6.1821 C   0  0  0  0  0  0  0  0  0  0  0  0
    2.4524    1.7830   -7.0932 C   0  0  0  0  0  0  0  0  0  0  0  0
    2.0084    0.4103   -7.6871 C   0  0  0  0  0  0  0  0  0  0  0  0
    2.6173    0.2190   -9.0950 C   0  0  0  0  0  0  0  0  0  0  0  0
    0.4998    0.2670   -7.7751 C   0  0  0  0  0  0  0  0  0  0  0  0
    2.4372   -0.6449   -6.8539 C   0  0  0  0  0  0  0  0  0  0  0  0
    3.8057   -0.5223   -6.2978 O   0  0  0  0  0  0  0  0  0  0  0  0
    4.3437   -1.4411   -5.4216 C   0  0  0  0  0  0  0  0  0  0  0  0
    5.7512   -1.1614   -5.0262 C   0  0  0  0  0  0  0  0  0  0  0  0
    6.0903   -2.0792   -3.9669 N   0  0  0  0  0  0  0  0  0  0  0  0
    7.3856   -1.9956   -3.5336 N   0  0  0  0  0  0  0  0  0  0  0  0
    7.6913   -1.6078   -2.2724 C   0  0  0  0  0  0  0  0  0  0  0  0
    6.5439   -1.2847   -1.3444 C   0  0  0  0  0  0  0  0  0  0  0  0
    6.8385   -1.5993    0.0291 N   0  0  0  0  0  0  0  0  0  0  0  0
    6.5188   -2.7719    0.6121 C   0  0  0  0  0  0  0  0  0  0  0  0
    6.9053   -2.8699    2.0612 C   0  0  0  0  0  0  0  0  0  0  0  0
    7.8335   -4.0689    2.4105 C   0  0  0  0  0  0  0  0  0  0  0  0
    8.1857   -4.0162    3.8995 C   0  0  0  0  0  0  0  0  0  0  0  0
    9.1224   -4.0064    1.5925 C   0  0  0  0  0  0  0  0  0  0  0  0
    5.7165   -2.9857    2.8748 N   0  0  0  0  0  0  0  0  0  0  0  0
    5.4310   -1.9623    3.7170 C   0  0  0  0  0  0  0  0  0  0  0  0
    4.3755   -2.1613    4.7680 C   0  0  0  0  0  0  0  0  0  0  0  0
    5.0396   -2.8866    5.9097 C   0  0  0  0  0  0  0  0  0  0  0  0
    4.0877   -3.0845    7.0421 C   0  0  0  0  0  0  0  0  0  0  0  0
    3.7015   -1.7597    7.4273 N   0  0  0  0  0  0  0  0  0  0  0  0
    4.2675   -1.2826    8.5854 C   0  0  0  0  0  0  0  0  0  0  0  0
    4.5964    0.0814    8.7231 C   0  0  0  0  0  0  0  0  0  0  0  0
    4.3338    1.1981    8.5644 C   0  0  0  0  0  0  0  0  0  0  0  0
    5.0205    2.5258    8.7723 C   0  0  0  0  0  0  0  0  0  0  0  0
    6.4239    2.4998    8.3127 N   0  0  0  0  0  0  0  0  0  0  0  0
    6.5771    2.1769    6.9030 C   0  0  0  0  0  0  0  0  0  0  0  0
    7.3588    1.7752    9.1783 C   0  0  0  0  0  0  0  0  0  0  0  0
    5.0118    2.8921   10.2585 C   0  0  0  0  0  0  0  0  0  0  0  0
    4.2703    3.6093    8.0074 C   0  0  0  0  0  0  0  0  0  0  0  0
    4.5586   -2.0124    9.4993 O   0  0  0  0  0  0  0  0  0  0  0  0
    2.9353   -1.0407    6.4143 C   0  0  0  0  0  0  0  0  0  0  0  0
    3.8130   -0.8197    5.2390 C   0  0  0  0  0  0  0  0  0  0  0  0
    6.0478   -0.9105    3.6583 O   0  0  0  0  0  0  0  0  0  0  0  0
    4.9358   -4.2144    2.7592 C   0  0  0  0  0  0  0  0  0  0  0  0
    5.9433   -3.6602    0.0101 O   0  0  0  0  0  0  0  0  0  0  0  0
    6.2935    0.2130   -1.4892 C   0  0  0  0  0  0  0  0  0  0  0  0
    4.9762    0.6620   -0.9772 C   0  0  0  0  0  0  0  0  0  0  0  0
    3.8717    0.2927   -1.9534 C   0  0  0  0  0  0  0  0  0  0  0  0
    2.6869    1.0098   -1.5393 N   0  0  0  0  0  0  0  0  0  0  0  0
    2.3054    0.7515   -0.1675 C   0  0  0  0  0  0  0  0  0  0  0  0
    3.5048    0.8815    0.8086 C   0  0  0  0  0  0  0  0  0  0  0  0
    4.6500    0.1541    0.2777 O   0  0  0  0  0  0  0  0  0  0  0  0
    8.8342   -1.4471   -1.9071 O   0  0  0  0  0  0  0  0  0  0  0  0
    8.4084   -2.2579   -4.5592 C   0  0  0  0  0  0  0  0  0  0  0  0
    8.1526   -1.2445   -5.6944 C   0  0  0  0  0  0  0  0  0  0  0  0
    6.7234   -1.3465   -6.1908 C   0  0  0  0  0  0  0  0  0  0  0  0
    3.8081   -2.4658   -4.9242 O   0  0  0  0  0  0  0  0  0  0  0  0
    1.4564    2.3449   -4.7744 C   0  0  0  0  0  0  0  0  0  0  0  0
    0.4676    3.1935   -4.3143 C   0  0  0  0  0  0  0  0  0  0  0  0
    0.2255    3.3133   -2.9287 C   0  0  0  0  0  0  0  0  0  0  0  0
    0.9780    2.5851   -2.0459 C   0  0  0  0  0  0  0  0  0  0  0  0
    1.9507    1.7254   -2.4842 C   0  0  0  0  0  0  0  0  0  0  0  0
    2.2251    1.6035   -3.8737 C   0  0  0  0  0  0  0  0  0  0  0  0
    3.2836   -2.8446    4.2992 F   0  0  0  0  0  0  0  0  0  0  0  0
  1  2  1  0  0  0  0
  2  3  1  0  0  0  0
  2  5  1  0  0  0  0
  3  4  1  0  0  0  0
  5  6  4  0  0  0  0
  5 10  4  0  0  0  0
  6  7  4  0  0  0  0
  7  8  4  0  0  0  0
  8  9  4  0  0  0  0
  9 10  4  0  0  0  0
 10 11  1  0  0  0  0
 11 12  4  0  0  0  0
 11 15  4  0  0  0  0
 12 13  1  0  0  0  0
 12 68  4  0  0  0  0
 13 14  1  0  0  0  0
 15 16  1  0  0  0  0
 15 67  4  0  0  0  0
 16 17  1  0  0  0  0
 17 18  1  0  0  0  0
 17 19  1  0  0  0  0
 17 20  1  0  0  0  0
 20 21  1  0  0  0  0
 21 22  1  0  0  0  0
 22 23  1  0  0  0  0
 22 66  2  0  0  0  0
 23 24  1  0  0  0  0
 23 65  1  0  0  0  0
 24 25  1  0  0  0  0
 25 26  1  0  0  0  0
 25 63  1  0  0  0  0
 26 27  1  0  0  0  0
 26 62  2  0  0  0  0
 27 28  1  0  0  0  0
 27 55  1  0  0  0  0
 28 29  1  0  0  0  0
 29 30  1  0  0  0  0
 29 54  2  0  0  0  0
 30 31  1  0  0  0  0
 30 34  1  0  0  0  0
 31 32  1  0  0  0  0
 31 33  1  0  0  0  0
 34 35  1  0  0  0  0
 34 53  1  0  0  0  0
 35 36  1  0  0  0  0
 35 52  2  0  0  0  0
 36 37  1  0  0  0  0
 36 51  1  0  0  0  0
 36 73  1  0  0  0  0
 37 38  1  0  0  0  0
 38 39  1  0  0  0  0
 39 40  1  0  0  0  0
 39 50  1  0  0  0  0
 40 41  1  0  0  0  0
 40 49  2  0  0  0  0
 41 42  1  0  0  0  0
 42 43  1  0  0  0  0
 43 44  1  0  0  0  0
 43 47  1  0  0  0  0
 43 48  1  0  0  0  0
 44 45  1  0  0  0  0
 44 46  1  0  0  0  0
 50 51  1  0  0  0  0
 55 56  1  0  0  0  0
 56 57  1  0  0  0  0
 56 61  1  0  0  0  0
 57 58  1  0  0  0  0
 58 59  1  0  0  0  0
 58 71  1  0  0  0  0
 59 60  1  0  0  0  0
 60 61  1  0  0  0  0
 63 64  1  0  0  0  0
 64 65  1  0  0  0  0
 67 68  4  0  0  0  0
 67 72  4  0  0  0  0
 68 69  4  0  0  0  0
 69 70  4  0  0  0  0
 70 71  4  0  0  0  0
 71 72  4  0  0  0  0
M  END
$$$$
