mol_ETKDG2_134
  PyMOL3.1          3D                             0

 73 79  0  0  0  0  0  0  0  0999 V2000
   -0.3162   -3.4969   -1.5138 C   0  0  0  0  0  0  0  0  0  0  0  0
   -0.5947   -3.4271   -0.0601 C   0  0  0  0  0  0  0  0  0  0  0  0
   -0.2153   -4.5427    0.7007 O   0  0  0  0  0  0  0  0  0  0  0  0
    1.1737   -4.7488    0.9029 C   0  0  0  0  0  0  0  0  0  0  0  0
   -2.0111   -3.1460    0.2397 C   0  0  0  0  0  0  0  0  0  0  0  0
   -2.9030   -4.1013    0.0034 N   0  0  0  0  0  0  0  0  0  0  0  0
   -4.2268   -3.8844    0.1949 C   0  0  0  0  0  0  0  0  0  0  0  0
   -4.7141   -2.6481    0.6346 C   0  0  0  0  0  0  0  0  0  0  0  0
   -3.7842   -1.6258    0.8782 C   0  0  0  0  0  0  0  0  0  0  0  0
   -2.4154   -1.9048    0.7011 C   0  0  0  0  0  0  0  0  0  0  0  0
   -1.4658   -0.8722    1.0177 C   0  0  0  0  0  0  0  0  0  0  0  0
   -1.1738    0.1573    0.1809 N   0  0  0  0  0  0  0  0  0  0  0  0
   -1.6895    0.3833   -1.2142 C   0  0  0  0  0  0  0  0  0  0  0  0
   -2.6747    1.4661   -1.2910 C   0  0  0  0  0  0  0  0  0  0  0  0
   -0.6672   -0.8069    2.1871 C   0  0  0  0  0  0  0  0  0  0  0  0
   -0.4773   -1.7863    3.3165 C   0  0  0  0  0  0  0  0  0  0  0  0
   -1.5463   -1.7315    4.4700 C   0  0  0  0  0  0  0  0  0  0  0  0
   -1.2085   -2.8116    5.4878 C   0  0  0  0  0  0  0  0  0  0  0  0
   -2.9138   -2.0783    4.0171 C   0  0  0  0  0  0  0  0  0  0  0  0
   -1.5408   -0.3850    5.0988 C   0  0  0  0  0  0  0  0  0  0  0  0
   -0.5298   -0.1919    6.1860 O   0  0  0  0  0  0  0  0  0  0  0  0
   -0.8121    0.4425    7.4196 C   0  0  0  0  0  0  0  0  0  0  0  0
    0.3198    0.6230    8.4038 C   0  0  0  0  0  0  0  0  0  0  0  0
    1.4506   -0.1859    8.0300 N   0  0  0  0  0  0  0  0  0  0  0  0
    2.5540   -0.1438    8.8806 N   0  0  0  0  0  0  0  0  0  0  0  0
    3.8024    0.1849    8.4191 C   0  0  0  0  0  0  0  0  0  0  0  0
    3.9844    0.4916    6.9653 C   0  0  0  0  0  0  0  0  0  0  0  0
    5.2659    0.0222    6.4648 N   0  0  0  0  0  0  0  0  0  0  0  0
    5.3942   -1.0531    5.6704 C   0  0  0  0  0  0  0  0  0  0  0  0
    6.7401   -1.2794    5.0598 C   0  0  0  0  0  0  0  0  0  0  0  0
    7.5950   -2.3783    5.7238 C   0  0  0  0  0  0  0  0  0  0  0  0
    9.0492   -2.2770    5.4361 C   0  0  0  0  0  0  0  0  0  0  0  0
    7.2471   -2.7289    7.1168 C   0  0  0  0  0  0  0  0  0  0  0  0
    6.5063   -1.5487    3.6363 N   0  0  0  0  0  0  0  0  0  0  0  0
    6.3392   -0.4783    2.7881 C   0  0  0  0  0  0  0  0  0  0  0  0
    5.9700   -0.5773    1.3244 C   0  0  0  0  0  0  0  0  0  0  0  0
    4.4721   -0.7881    1.2686 C   0  0  0  0  0  0  0  0  0  0  0  0
    3.9973   -0.9047   -0.1495 C   0  0  0  0  0  0  0  0  0  0  0  0
    4.3993    0.2958   -0.8865 N   0  0  0  0  0  0  0  0  0  0  0  0
    3.4581    1.0367   -1.5582 C   0  0  0  0  0  0  0  0  0  0  0  0
    3.5825    2.4007   -1.7186 C   0  0  0  0  0  0  0  0  0  0  0  0
    3.5687    3.5413   -1.9221 C   0  0  0  0  0  0  0  0  0  0  0  0
    3.7222    4.9292   -2.0592 C   0  0  0  0  0  0  0  0  0  0  0  0
    3.4902    5.3778   -3.3928 N   0  0  0  0  0  0  0  0  0  0  0  0
    3.2483    6.7359   -3.6690 C   0  0  0  0  0  0  0  0  0  0  0  0
    3.7909    4.5571   -4.4979 C   0  0  0  0  0  0  0  0  0  0  0  0
    2.7582    5.6089   -1.1035 C   0  0  0  0  0  0  0  0  0  0  0  0
    5.1445    5.3215   -1.6402 C   0  0  0  0  0  0  0  0  0  0  0  0
    2.4392    0.5013   -1.9735 O   0  0  0  0  0  0  0  0  0  0  0  0
    5.8028    0.6385   -0.8439 C   0  0  0  0  0  0  0  0  0  0  0  0
    6.3262    0.7043    0.5463 C   0  0  0  0  0  0  0  0  0  0  0  0
    6.4657    0.6640    3.2782 O   0  0  0  0  0  0  0  0  0  0  0  0
    6.3217   -2.9416    3.1902 C   0  0  0  0  0  0  0  0  0  0  0  0
    4.4100   -1.7134    5.3647 O   0  0  0  0  0  0  0  0  0  0  0  0
    3.9110    2.0581    6.7432 C   0  0  0  0  0  0  0  0  0  0  0  0
    4.0083    2.4664    5.2453 C   0  0  0  0  0  0  0  0  0  0  0  0
    2.6487    2.3363    4.6750 C   0  0  0  0  0  0  0  0  0  0  0  0
    2.6075    2.7329    3.2933 N   0  0  0  0  0  0  0  0  0  0  0  0
    3.1797    4.0618    3.0113 C   0  0  0  0  0  0  0  0  0  0  0  0
    4.5283    4.2481    3.7282 C   0  0  0  0  0  0  0  0  0  0  0  0
    4.4477    3.8449    5.1474 O   0  0  0  0  0  0  0  0  0  0  0  0
    4.7792    0.2812    9.1848 O   0  0  0  0  0  0  0  0  0  0  0  0
    2.2949   -0.5382   10.2679 C   0  0  0  0  0  0  0  0  0  0  0  0
    1.0959    0.2764   10.8062 C   0  0  0  0  0  0  0  0  0  0  0  0
   -0.1029    0.2342    9.8521 C   0  0  0  0  0  0  0  0  0  0  0  0
   -1.9354    0.8838    7.7724 O   0  0  0  0  0  0  0  0  0  0  0  0
    0.0616    0.3873    2.0244 C   0  0  0  0  0  0  0  0  0  0  0  0
   -0.2713    0.9412    0.7876 C   0  0  0  0  0  0  0  0  0  0  0  0
    0.3721    2.1532    0.3660 C   0  0  0  0  0  0  0  0  0  0  0  0
    1.3236    2.7116    1.2265 C   0  0  0  0  0  0  0  0  0  0  0  0
    1.6478    2.1422    2.4562 C   0  0  0  0  0  0  0  0  0  0  0  0
    1.0156    0.9506    2.8701 C   0  0  0  0  0  0  0  0  0  0  0  0
    6.6632   -1.5945    0.6980 F   0  0  0  0  0  0  0  0  0  0  0  0
  1  2  1  0  0  0  0
  2  3  1  0  0  0  0
  2  5  1  0  0  0  0
  3  4  1  0  0  0  0
  5  6  4  0  0  0  0
  5 10  4  0  0  0  0
  6  7  4  0  0  0  0
  7  8  4  0  0  0  0
  8  9  4  0  0  0  0
  9 10  4  0  0  0  0
 10 11  1  0  0  0  0
 11 12  4  0  0  0  0
 11 15  4  0  0  0  0
 12 13  1  0  0  0  0
 12 68  4  0  0  0  0
 13 14  1  0  0  0  0
 15 16  1  0  0  0  0
 15 67  4  0  0  0  0
 16 17  1  0  0  0  0
 17 18  1  0  0  0  0
 17 19  1  0  0  0  0
 17 20  1  0  0  0  0
 20 21  1  0  0  0  0
 21 22  1  0  0  0  0
 22 23  1  0  0  0  0
 22 66  2  0  0  0  0
 23 24  1  0  0  0  0
 23 65  1  0  0  0  0
 24 25  1  0  0  0  0
 25 26  1  0  0  0  0
 25 63  1  0  0  0  0
 26 27  1  0  0  0  0
 26 62  2  0  0  0  0
 27 28  1  0  0  0  0
 27 55  1  0  0  0  0
 28 29  1  0  0  0  0
 29 30  1  0  0  0  0
 29 54  2  0  0  0  0
 30 31  1  0  0  0  0
 30 34  1  0  0  0  0
 31 32  1  0  0  0  0
 31 33  1  0  0  0  0
 34 35  1  0  0  0  0
 34 53  1  0  0  0  0
 35 36  1  0  0  0  0
 35 52  2  0  0  0  0
 36 37  1  0  0  0  0
 36 51  1  0  0  0  0
 36 73  1  0  0  0  0
 37 38  1  0  0  0  0
 38 39  1  0  0  0  0
 39 40  1  0  0  0  0
 39 50  1  0  0  0  0
 40 41  1  0  0  0  0
 40 49  2  0  0  0  0
 41 42  1  0  0  0  0
 42 43  1  0  0  0  0
 43 44  1  0  0  0  0
 43 47  1  0  0  0  0
 43 48  1  0  0  0  0
 44 45  1  0  0  0  0
 44 46  1  0  0  0  0
 50 51  1  0  0  0  0
 55 56  1  0  0  0  0
 56 57  1  0  0  0  0
 56 61  1  0  0  0  0
 57 58  1  0  0  0  0
 58 59  1  0  0  0  0
 58 71  1  0  0  0  0
 59 60  1  0  0  0  0
 60 61  1  0  0  0  0
 63 64  1  0  0  0  0
 64 65  1  0  0  0  0
 67 68  4  0  0  0  0
 67 72  4  0  0  0  0
 68 69  4  0  0  0  0
 69 70  4  0  0  0  0
 70 71  4  0  0  0  0
 71 72  4  0  0  0  0
M  END
$$$$
