mol_bioactive_16
  PyMOL3.1          3D                             0

 73 79  0  0  0  0  0  0  0  0999 V2000
   -0.2928    5.4929    5.3748 C   0  0  0  0  0  0  0  0  0  0  0  0
   -1.1638    4.3141    5.2031 C   0  0  0  0  0  0  0  0  0  0  0  0
   -2.5631    4.5923    5.1638 O   0  0  0  0  0  0  0  0  0  0  0  0
   -3.0621    5.2255    4.0022 C   0  0  0  0  0  0  0  0  0  0  0  0
   -0.9300    3.2676    6.2327 C   0  0  0  0  0  0  0  0  0  0  0  0
   -1.5464    3.3652    7.4005 N   0  0  0  0  0  0  0  0  0  0  0  0
   -1.3253    2.4799    8.3985 C   0  0  0  0  0  0  0  0  0  0  0  0
   -0.4395    1.4253    8.2520 C   0  0  0  0  0  0  0  0  0  0  0  0
    0.2186    1.3004    7.0364 C   0  0  0  0  0  0  0  0  0  0  0  0
   -0.0331    2.2448    6.0250 C   0  0  0  0  0  0  0  0  0  0  0  0
    0.5983    2.0191    4.7382 C   0  0  0  0  0  0  0  0  0  0  0  0
    1.9135    2.1277    4.4661 N   0  0  0  0  0  0  0  0  0  0  0  0
    2.9753    2.6549    5.3656 C   0  0  0  0  0  0  0  0  0  0  0  0
    3.3376    4.0610    5.0303 C   0  0  0  0  0  0  0  0  0  0  0  0
   -0.0638    1.6018    3.5934 C   0  0  0  0  0  0  0  0  0  0  0  0
   -1.4266    1.6143    3.4276 C   0  0  0  0  0  0  0  0  0  0  0  0
   -2.5212    0.7823    3.2097 C   0  0  0  0  0  0  0  0  0  0  0  0
   -2.1904   -0.6839    3.1474 C   0  0  0  0  0  0  0  0  0  0  0  0
   -3.6000    0.9173    4.2736 C   0  0  0  0  0  0  0  0  0  0  0  0
   -2.9026    1.3630    1.9832 C   0  0  0  0  0  0  0  0  0  0  0  0
   -3.0141    0.5825    0.7636 O   0  0  0  0  0  0  0  0  0  0  0  0
   -3.9286    0.8512   -0.2606 C   0  0  0  0  0  0  0  0  0  0  0  0
   -4.0399   -0.1777   -1.3395 C   0  0  0  0  0  0  0  0  0  0  0  0
   -3.6726   -1.4447   -0.8074 N   0  0  0  0  0  0  0  0  0  0  0  0
   -3.8103   -2.5520   -1.6075 N   0  0  0  0  0  0  0  0  0  0  0  0
   -2.7637   -3.4058   -1.7853 C   0  0  0  0  0  0  0  0  0  0  0  0
   -1.4248   -3.0478   -1.1950 C   0  0  0  0  0  0  0  0  0  0  0  0
   -0.8105   -4.2301   -0.5767 N   0  0  0  0  0  0  0  0  0  0  0  0
   -0.7875   -4.4735    0.7453 C   0  0  0  0  0  0  0  0  0  0  0  0
   -0.0448   -5.6984    1.1839 C   0  0  0  0  0  0  0  0  0  0  0  0
   -0.9634   -6.8707    1.6603 C   0  0  0  0  0  0  0  0  0  0  0  0
   -0.2089   -8.1548    1.8665 C   0  0  0  0  0  0  0  0  0  0  0  0
   -2.1703   -7.0466    0.8062 C   0  0  0  0  0  0  0  0  0  0  0  0
    0.8693   -5.2822    2.2343 N   0  0  0  0  0  0  0  0  0  0  0  0
    2.0599   -4.7181    1.8715 C   0  0  0  0  0  0  0  0  0  0  0  0
    3.0612   -4.1984    2.8589 C   0  0  0  0  0  0  0  0  0  0  0  0
    2.5217   -2.9008    3.3883 C   0  0  0  0  0  0  0  0  0  0  0  0
    3.3998   -2.3767    4.4287 C   0  0  0  0  0  0  0  0  0  0  0  0
    4.7370   -2.2184    3.8832 N   0  0  0  0  0  0  0  0  0  0  0  0
    5.3325   -1.0220    4.0127 C   0  0  0  0  0  0  0  0  0  0  0  0
    6.4187   -0.6315    3.2569 C   0  0  0  0  0  0  0  0  0  0  0  0
    7.2992   -0.1508    2.7041 C   0  0  0  0  0  0  0  0  0  0  0  0
    8.3510    0.3257    1.9375 C   0  0  0  0  0  0  0  0  0  0  0  0
    8.2353   -0.0937    0.6064 N   0  0  0  0  0  0  0  0  0  0  0  0
    8.6060   -1.3944    0.2560 C   0  0  0  0  0  0  0  0  0  0  0  0
    7.9696    0.8017   -0.4259 C   0  0  0  0  0  0  0  0  0  0  0  0
    8.3765    1.8296    2.0130 C   0  0  0  0  0  0  0  0  0  0  0  0
    9.6839   -0.1814    2.4966 C   0  0  0  0  0  0  0  0  0  0  0  0
    4.8698   -0.2217    4.8267 O   0  0  0  0  0  0  0  0  0  0  0  0
    5.3374   -3.3469    3.2356 C   0  0  0  0  0  0  0  0  0  0  0  0
    4.4466   -3.9557    2.2471 C   0  0  0  0  0  0  0  0  0  0  0  0
    2.3058   -4.6085    0.6611 O   0  0  0  0  0  0  0  0  0  0  0  0
    0.4338   -5.3718    3.6370 C   0  0  0  0  0  0  0  0  0  0  0  0
   -1.2501   -3.6668    1.5291 O   0  0  0  0  0  0  0  0  0  0  0  0
   -0.5257   -2.4700   -2.3516 C   0  0  0  0  0  0  0  0  0  0  0  0
    0.6006   -1.4328   -2.1821 C   0  0  0  0  0  0  0  0  0  0  0  0
    0.7287   -0.8850   -0.8421 C   0  0  0  0  0  0  0  0  0  0  0  0
    1.8779   -0.0562   -0.6010 N   0  0  0  0  0  0  0  0  0  0  0  0
    2.9661   -0.0705   -1.5087 C   0  0  0  0  0  0  0  0  0  0  0  0
    2.9122   -1.0355   -2.6363 C   0  0  0  0  0  0  0  0  0  0  0  0
    1.8458   -2.0246   -2.6267 O   0  0  0  0  0  0  0  0  0  0  0  0
   -2.8790   -4.4284   -2.4699 O   0  0  0  0  0  0  0  0  0  0  0  0
   -5.1349   -2.7786   -2.1756 C   0  0  0  0  0  0  0  0  0  0  0  0
   -5.6439   -1.4754   -2.8200 C   0  0  0  0  0  0  0  0  0  0  0  0
   -5.4678   -0.2717   -1.9285 C   0  0  0  0  0  0  0  0  0  0  0  0
   -4.6600    1.8810   -0.3802 O   0  0  0  0  0  0  0  0  0  0  0  0
    0.9375    1.3474    2.6383 C   0  0  0  0  0  0  0  0  0  0  0  0
    2.1332    1.7143    3.2003 C   0  0  0  0  0  0  0  0  0  0  0  0
    3.3245    1.5865    2.4183 C   0  0  0  0  0  0  0  0  0  0  0  0
    3.2052    1.0159    1.1439 C   0  0  0  0  0  0  0  0  0  0  0  0
    1.9760    0.5936    0.6285 C   0  0  0  0  0  0  0  0  0  0  0  0
    0.8162    0.7881    1.3735 C   0  0  0  0  0  0  0  0  0  0  0  0
    3.2689   -5.1159    3.8734 F   0  0  0  0  0  0  0  0  0  0  0  0
  1  2  1  0  0  0  0
  2  3  1  0  0  0  0
  2  5  1  0  0  0  0
  3  4  1  0  0  0  0
  5  6  4  0  0  0  0
  5 10  4  0  0  0  0
  6  7  4  0  0  0  0
  7  8  4  0  0  0  0
  8  9  4  0  0  0  0
  9 10  4  0  0  0  0
 10 11  1  0  0  0  0
 11 12  4  0  0  0  0
 11 15  4  0  0  0  0
 12 13  1  0  0  0  0
 12 68  4  0  0  0  0
 13 14  1  0  0  0  0
 15 16  1  0  0  0  0
 15 67  4  0  0  0  0
 16 17  1  0  0  0  0
 17 18  1  0  0  0  0
 17 19  1  0  0  0  0
 17 20  1  0  0  0  0
 20 21  1  0  0  0  0
 21 22  1  0  0  0  0
 22 23  1  0  0  0  0
 22 66  2  0  0  0  0
 23 24  1  0  0  0  0
 23 65  1  0  0  0  0
 24 25  1  0  0  0  0
 25 26  1  0  0  0  0
 25 63  1  0  0  0  0
 26 27  1  0  0  0  0
 26 62  2  0  0  0  0
 27 28  1  0  0  0  0
 27 55  1  0  0  0  0
 28 29  1  0  0  0  0
 29 30  1  0  0  0  0
 29 54  2  0  0  0  0
 30 31  1  0  0  0  0
 30 34  1  0  0  0  0
 31 32  1  0  0  0  0
 31 33  1  0  0  0  0
 34 35  1  0  0  0  0
 34 53  1  0  0  0  0
 35 36  1  0  0  0  0
 35 52  2  0  0  0  0
 36 37  1  0  0  0  0
 36 51  1  0  0  0  0
 36 73  1  0  0  0  0
 37 38  1  0  0  0  0
 38 39  1  0  0  0  0
 39 40  1  0  0  0  0
 39 50  1  0  0  0  0
 40 41  1  0  0  0  0
 40 49  2  0  0  0  0
 41 42  1  0  0  0  0
 42 43  1  0  0  0  0
 43 44  1  0  0  0  0
 43 47  1  0  0  0  0
 43 48  1  0  0  0  0
 44 45  1  0  0  0  0
 44 46  1  0  0  0  0
 50 51  1  0  0  0  0
 55 56  1  0  0  0  0
 56 57  1  0  0  0  0
 56 61  1  0  0  0  0
 57 58  1  0  0  0  0
 58 59  1  0  0  0  0
 58 71  1  0  0  0  0
 59 60  1  0  0  0  0
 60 61  1  0  0  0  0
 63 64  1  0  0  0  0
 64 65  1  0  0  0  0
 67 68  4  0  0  0  0
 67 72  4  0  0  0  0
 68 69  4  0  0  0  0
 69 70  4  0  0  0  0
 70 71  4  0  0  0  0
 71 72  4  0  0  0  0
M  END
$$$$
