mol_ETKDG2_141
  PyMOL3.1          3D                             0

 73 79  0  0  0  0  0  0  0  0999 V2000
   -6.4859    3.9600   -1.2646 C   0  0  0  0  0  0  0  0  0  0  0  0
   -5.4640    4.2412   -2.2977 C   0  0  0  0  0  0  0  0  0  0  0  0
   -5.8552    3.9033   -3.6250 O   0  0  0  0  0  0  0  0  0  0  0  0
   -5.9366    2.5342   -3.9424 C   0  0  0  0  0  0  0  0  0  0  0  0
   -5.0324    5.6562   -2.2987 C   0  0  0  0  0  0  0  0  0  0  0  0
   -5.7259    6.5218   -3.0209 N   0  0  0  0  0  0  0  0  0  0  0  0
   -5.4317    7.8449   -3.0211 C   0  0  0  0  0  0  0  0  0  0  0  0
   -4.3864    8.3636   -2.2437 C   0  0  0  0  0  0  0  0  0  0  0  0
   -3.6483    7.4681   -1.4538 C   0  0  0  0  0  0  0  0  0  0  0  0
   -3.9671    6.0972   -1.5136 C   0  0  0  0  0  0  0  0  0  0  0  0
   -3.1560    5.1736   -0.7528 C   0  0  0  0  0  0  0  0  0  0  0  0
   -3.3220    4.9354    0.5786 N   0  0  0  0  0  0  0  0  0  0  0  0
   -4.3593    5.5277    1.4963 C   0  0  0  0  0  0  0  0  0  0  0  0
   -3.8309    6.5108    2.4437 C   0  0  0  0  0  0  0  0  0  0  0  0
   -2.1404    4.3370   -1.2936 C   0  0  0  0  0  0  0  0  0  0  0  0
   -1.6914    4.1146   -2.7213 C   0  0  0  0  0  0  0  0  0  0  0  0
   -0.5727    5.0955   -3.2745 C   0  0  0  0  0  0  0  0  0  0  0  0
   -0.3625    4.7745   -4.7469 C   0  0  0  0  0  0  0  0  0  0  0  0
   -0.9929    6.5236   -3.2705 C   0  0  0  0  0  0  0  0  0  0  0  0
    0.7242    4.9424   -2.4911 C   0  0  0  0  0  0  0  0  0  0  0  0
    1.6131    3.8225   -2.9661 O   0  0  0  0  0  0  0  0  0  0  0  0
    2.9889    3.9776   -3.3080 C   0  0  0  0  0  0  0  0  0  0  0  0
    3.7845    2.7621   -3.7382 C   0  0  0  0  0  0  0  0  0  0  0  0
    2.9241    1.6460   -4.0269 N   0  0  0  0  0  0  0  0  0  0  0  0
    3.5573    0.4652   -4.4381 N   0  0  0  0  0  0  0  0  0  0  0  0
    3.3520   -0.7286   -3.7774 C   0  0  0  0  0  0  0  0  0  0  0  0
    2.3296   -0.7827   -2.6726 C   0  0  0  0  0  0  0  0  0  0  0  0
    1.5943   -2.0329   -2.7053 N   0  0  0  0  0  0  0  0  0  0  0  0
    0.3570   -2.1438   -3.2294 C   0  0  0  0  0  0  0  0  0  0  0  0
   -0.3316   -3.4664   -3.0457 C   0  0  0  0  0  0  0  0  0  0  0  0
   -0.3617   -4.3628   -4.3377 C   0  0  0  0  0  0  0  0  0  0  0  0
   -0.6816   -5.7991   -4.0327 C   0  0  0  0  0  0  0  0  0  0  0  0
    0.8463   -4.2071   -5.2013 C   0  0  0  0  0  0  0  0  0  0  0  0
   -1.6863   -3.1564   -2.5626 N   0  0  0  0  0  0  0  0  0  0  0  0
   -1.8551   -2.8482   -1.2326 C   0  0  0  0  0  0  0  0  0  0  0  0
   -3.1585   -2.3906   -0.6127 C   0  0  0  0  0  0  0  0  0  0  0  0
   -3.3848   -0.9657   -1.0858 C   0  0  0  0  0  0  0  0  0  0  0  0
   -4.6590   -0.4004   -0.5468 C   0  0  0  0  0  0  0  0  0  0  0  0
   -4.6289   -0.4777    0.9165 N   0  0  0  0  0  0  0  0  0  0  0  0
   -4.8468    0.6543    1.6682 C   0  0  0  0  0  0  0  0  0  0  0  0
   -4.6333    0.6473    3.0317 C   0  0  0  0  0  0  0  0  0  0  0  0
   -4.5303    0.7474    4.1844 C   0  0  0  0  0  0  0  0  0  0  0  0
   -4.3384    0.6840    5.5753 C   0  0  0  0  0  0  0  0  0  0  0  0
   -4.8705    1.8053    6.2978 N   0  0  0  0  0  0  0  0  0  0  0  0
   -4.7458    1.8824    7.6877 C   0  0  0  0  0  0  0  0  0  0  0  0
   -5.6820    2.7734    5.6870 C   0  0  0  0  0  0  0  0  0  0  0  0
   -2.8443    0.5789    5.8544 C   0  0  0  0  0  0  0  0  0  0  0  0
   -5.0002   -0.6008    6.0904 C   0  0  0  0  0  0  0  0  0  0  0  0
   -5.2110    1.7167    1.1440 O   0  0  0  0  0  0  0  0  0  0  0  0
   -4.3496   -1.7746    1.4916 C   0  0  0  0  0  0  0  0  0  0  0  0
   -3.1126   -2.3846    0.9296 C   0  0  0  0  0  0  0  0  0  0  0  0
   -0.8453   -2.9209   -0.4978 O   0  0  0  0  0  0  0  0  0  0  0  0
   -2.7920   -3.0552   -3.5356 C   0  0  0  0  0  0  0  0  0  0  0  0
   -0.1988   -1.1651   -3.7045 O   0  0  0  0  0  0  0  0  0  0  0  0
    3.0123   -0.6186   -1.2504 C   0  0  0  0  0  0  0  0  0  0  0  0
    1.9970   -0.5684   -0.0553 C   0  0  0  0  0  0  0  0  0  0  0  0
    1.4547    0.8249    0.0234 C   0  0  0  0  0  0  0  0  0  0  0  0
    0.5726    1.0146    1.1666 N   0  0  0  0  0  0  0  0  0  0  0  0
    1.1439    0.5890    2.4599 C   0  0  0  0  0  0  0  0  0  0  0  0
    1.7996   -0.8071    2.3351 C   0  0  0  0  0  0  0  0  0  0  0  0
    2.7168   -0.8710    1.1740 O   0  0  0  0  0  0  0  0  0  0  0  0
    4.0019   -1.7506   -4.0660 O   0  0  0  0  0  0  0  0  0  0  0  0
    4.3956    0.5864   -5.6369 C   0  0  0  0  0  0  0  0  0  0  0  0
    5.3744    1.7731   -5.4640 C   0  0  0  0  0  0  0  0  0  0  0  0
    4.6625    3.0426   -4.9934 C   0  0  0  0  0  0  0  0  0  0  0  0
    3.6084    5.0718   -3.2616 O   0  0  0  0  0  0  0  0  0  0  0  0
   -1.6673    3.6246   -0.1751 C   0  0  0  0  0  0  0  0  0  0  0  0
   -2.4182    4.0066    0.9407 C   0  0  0  0  0  0  0  0  0  0  0  0
   -2.1567    3.3774    2.2093 C   0  0  0  0  0  0  0  0  0  0  0  0
   -1.1596    2.3820    2.2478 C   0  0  0  0  0  0  0  0  0  0  0  0
   -0.4172    2.0166    1.1058 C   0  0  0  0  0  0  0  0  0  0  0  0
   -0.6810    2.6434   -0.1210 C   0  0  0  0  0  0  0  0  0  0  0  0
   -4.2005   -3.2389   -0.9607 F   0  0  0  0  0  0  0  0  0  0  0  0
  1  2  1  0  0  0  0
  2  3  1  0  0  0  0
  2  5  1  0  0  0  0
  3  4  1  0  0  0  0
  5  6  4  0  0  0  0
  5 10  4  0  0  0  0
  6  7  4  0  0  0  0
  7  8  4  0  0  0  0
  8  9  4  0  0  0  0
  9 10  4  0  0  0  0
 10 11  1  0  0  0  0
 11 12  4  0  0  0  0
 11 15  4  0  0  0  0
 12 13  1  0  0  0  0
 12 68  4  0  0  0  0
 13 14  1  0  0  0  0
 15 16  1  0  0  0  0
 15 67  4  0  0  0  0
 16 17  1  0  0  0  0
 17 18  1  0  0  0  0
 17 19  1  0  0  0  0
 17 20  1  0  0  0  0
 20 21  1  0  0  0  0
 21 22  1  0  0  0  0
 22 23  1  0  0  0  0
 22 66  2  0  0  0  0
 23 24  1  0  0  0  0
 23 65  1  0  0  0  0
 24 25  1  0  0  0  0
 25 26  1  0  0  0  0
 25 63  1  0  0  0  0
 26 27  1  0  0  0  0
 26 62  2  0  0  0  0
 27 28  1  0  0  0  0
 27 55  1  0  0  0  0
 28 29  1  0  0  0  0
 29 30  1  0  0  0  0
 29 54  2  0  0  0  0
 30 31  1  0  0  0  0
 30 34  1  0  0  0  0
 31 32  1  0  0  0  0
 31 33  1  0  0  0  0
 34 35  1  0  0  0  0
 34 53  1  0  0  0  0
 35 36  1  0  0  0  0
 35 52  2  0  0  0  0
 36 37  1  0  0  0  0
 36 51  1  0  0  0  0
 36 73  1  0  0  0  0
 37 38  1  0  0  0  0
 38 39  1  0  0  0  0
 39 40  1  0  0  0  0
 39 50  1  0  0  0  0
 40 41  1  0  0  0  0
 40 49  2  0  0  0  0
 41 42  1  0  0  0  0
 42 43  1  0  0  0  0
 43 44  1  0  0  0  0
 43 47  1  0  0  0  0
 43 48  1  0  0  0  0
 44 45  1  0  0  0  0
 44 46  1  0  0  0  0
 50 51  1  0  0  0  0
 55 56  1  0  0  0  0
 56 57  1  0  0  0  0
 56 61  1  0  0  0  0
 57 58  1  0  0  0  0
 58 59  1  0  0  0  0
 58 71  1  0  0  0  0
 59 60  1  0  0  0  0
 60 61  1  0  0  0  0
 63 64  1  0  0  0  0
 64 65  1  0  0  0  0
 67 68  4  0  0  0  0
 67 72  4  0  0  0  0
 68 69  4  0  0  0  0
 69 70  4  0  0  0  0
 70 71  4  0  0  0  0
 71 72  4  0  0  0  0
M  END
$$$$
