mol_bioactive_44
  PyMOL3.1          3D                             0

 73 79  0  0  0  0  0  0  0  0999 V2000
   -2.5954    0.3582   -4.2310 C   0  0  0  0  0  0  0  0  0  0  0  0
   -1.5471    0.0980   -5.2196 C   0  0  0  0  0  0  0  0  0  0  0  0
   -1.6583    0.9852   -6.3607 O   0  0  0  0  0  0  0  0  0  0  0  0
   -0.7341    2.0282   -6.4244 C   0  0  0  0  0  0  0  0  0  0  0  0
   -1.5365   -1.2961   -5.7322 C   0  0  0  0  0  0  0  0  0  0  0  0
   -2.2136   -1.5518   -6.8347 N   0  0  0  0  0  0  0  0  0  0  0  0
   -2.1881   -2.7732   -7.4150 C   0  0  0  0  0  0  0  0  0  0  0  0
   -1.4694   -3.8327   -6.8573 C   0  0  0  0  0  0  0  0  0  0  0  0
   -0.7632   -3.5928   -5.6751 C   0  0  0  0  0  0  0  0  0  0  0  0
   -0.8404   -2.3214   -5.0907 C   0  0  0  0  0  0  0  0  0  0  0  0
   -0.1647   -2.1188   -3.8351 C   0  0  0  0  0  0  0  0  0  0  0  0
    1.1187   -1.7090   -3.7582 N   0  0  0  0  0  0  0  0  0  0  0  0
    2.0393   -1.3600   -4.8982 C   0  0  0  0  0  0  0  0  0  0  0  0
    3.0508   -2.3980   -5.1452 C   0  0  0  0  0  0  0  0  0  0  0  0
   -0.7340   -2.2606   -2.5283 C   0  0  0  0  0  0  0  0  0  0  0  0
   -2.1472   -2.5341   -2.0617 C   0  0  0  0  0  0  0  0  0  0  0  0
   -2.5527   -4.0515   -1.8809 C   0  0  0  0  0  0  0  0  0  0  0  0
   -4.0137   -4.1085   -1.4629 C   0  0  0  0  0  0  0  0  0  0  0  0
   -2.5006   -4.8029   -3.1581 C   0  0  0  0  0  0  0  0  0  0  0  0
   -1.6607   -4.7234   -0.8480 C   0  0  0  0  0  0  0  0  0  0  0  0
   -2.0599   -4.5468    0.5966 O   0  0  0  0  0  0  0  0  0  0  0  0
   -2.3008   -5.6351    1.5009 C   0  0  0  0  0  0  0  0  0  0  0  0
   -2.5791   -5.3297    2.9657 C   0  0  0  0  0  0  0  0  0  0  0  0
   -3.2024   -4.0408    3.1066 N   0  0  0  0  0  0  0  0  0  0  0  0
   -3.5933   -3.6512    4.3918 N   0  0  0  0  0  0  0  0  0  0  0  0
   -3.1411   -2.4897    4.9655 C   0  0  0  0  0  0  0  0  0  0  0  0
   -2.1454   -1.6305    4.2224 C   0  0  0  0  0  0  0  0  0  0  0  0
   -2.3282   -0.2101    4.5251 N   0  0  0  0  0  0  0  0  0  0  0  0
   -3.0953    0.6739    3.8563 C   0  0  0  0  0  0  0  0  0  0  0  0
   -3.0360    2.0990    4.3339 C   0  0  0  0  0  0  0  0  0  0  0  0
   -4.3797    2.5996    4.9857 C   0  0  0  0  0  0  0  0  0  0  0  0
   -4.2682    3.9819    5.5651 C   0  0  0  0  0  0  0  0  0  0  0  0
   -4.8987    1.6160    6.0010 C   0  0  0  0  0  0  0  0  0  0  0  0
   -2.5842    2.9230    3.2048 N   0  0  0  0  0  0  0  0  0  0  0  0
   -1.2395    3.0117    2.9629 C   0  0  0  0  0  0  0  0  0  0  0  0
   -0.6042    3.6995    1.7737 C   0  0  0  0  0  0  0  0  0  0  0  0
   -0.8097    2.7806    0.5916 C   0  0  0  0  0  0  0  0  0  0  0  0
   -0.1307    3.3056   -0.6410 C   0  0  0  0  0  0  0  0  0  0  0  0
    1.3031    3.4704   -0.3478 N   0  0  0  0  0  0  0  0  0  0  0  0
    2.2636    2.7863   -1.0742 C   0  0  0  0  0  0  0  0  0  0  0  0
    3.5428    2.4977   -0.5813 C   0  0  0  0  0  0  0  0  0  0  0  0
    4.6434    2.2390   -0.2714 C   0  0  0  0  0  0  0  0  0  0  0  0
    5.9241    2.0458    0.3164 C   0  0  0  0  0  0  0  0  0  0  0  0
    6.2747    3.2111    1.0626 N   0  0  0  0  0  0  0  0  0  0  0  0
    6.3168    4.4542    0.3972 C   0  0  0  0  0  0  0  0  0  0  0  0
    6.7717    3.1608    2.3673 C   0  0  0  0  0  0  0  0  0  0  0  0
    6.9653    1.8002   -0.7555 C   0  0  0  0  0  0  0  0  0  0  0  0
    5.8941    0.8355    1.2051 C   0  0  0  0  0  0  0  0  0  0  0  0
    1.9791    2.3549   -2.1854 O   0  0  0  0  0  0  0  0  0  0  0  0
    1.6015    4.3445    0.7513 C   0  0  0  0  0  0  0  0  0  0  0  0
    0.9119    3.9062    1.9923 C   0  0  0  0  0  0  0  0  0  0  0  0
   -0.4841    2.4403    3.7749 O   0  0  0  0  0  0  0  0  0  0  0  0
   -3.5912    3.5160    2.2994 C   0  0  0  0  0  0  0  0  0  0  0  0
   -3.6872    0.3422    2.8533 O   0  0  0  0  0  0  0  0  0  0  0  0
   -0.7093   -2.0896    4.7002 C   0  0  0  0  0  0  0  0  0  0  0  0
    0.6060   -1.9716    3.8958 C   0  0  0  0  0  0  0  0  0  0  0  0
    0.4141   -1.7278    2.4799 C   0  0  0  0  0  0  0  0  0  0  0  0
    1.6137   -1.4931    1.7261 N   0  0  0  0  0  0  0  0  0  0  0  0
    2.8489   -1.2532    2.4003 C   0  0  0  0  0  0  0  0  0  0  0  0
    2.7907   -0.9786    3.8564 C   0  0  0  0  0  0  0  0  0  0  0  0
    1.4886   -1.0072    4.4939 O   0  0  0  0  0  0  0  0  0  0  0  0
   -3.4675   -2.1675    6.1237 O   0  0  0  0  0  0  0  0  0  0  0  0
   -4.5460   -4.5435    5.0447 C   0  0  0  0  0  0  0  0  0  0  0  0
   -3.9638   -5.9749    5.0208 C   0  0  0  0  0  0  0  0  0  0  0  0
   -3.5228   -6.3884    3.6185 C   0  0  0  0  0  0  0  0  0  0  0  0
   -2.3097   -6.8418    1.1577 O   0  0  0  0  0  0  0  0  0  0  0  0
    0.3424   -1.9600   -1.6817 C   0  0  0  0  0  0  0  0  0  0  0  0
    1.4469   -1.6184   -2.4662 C   0  0  0  0  0  0  0  0  0  0  0  0
    2.6585   -1.2103   -1.8302 C   0  0  0  0  0  0  0  0  0  0  0  0
    2.6703   -1.1834   -0.4414 C   0  0  0  0  0  0  0  0  0  0  0  0
    1.5606   -1.5346    0.3343 C   0  0  0  0  0  0  0  0  0  0  0  0
    0.3725   -1.9341   -0.2943 C   0  0  0  0  0  0  0  0  0  0  0  0
   -1.1505    4.9589    1.5694 F   0  0  0  0  0  0  0  0  0  0  0  0
  1  2  1  0  0  0  0
  2  3  1  0  0  0  0
  2  5  1  0  0  0  0
  3  4  1  0  0  0  0
  5  6  4  0  0  0  0
  5 10  4  0  0  0  0
  6  7  4  0  0  0  0
  7  8  4  0  0  0  0
  8  9  4  0  0  0  0
  9 10  4  0  0  0  0
 10 11  1  0  0  0  0
 11 12  4  0  0  0  0
 11 15  4  0  0  0  0
 12 13  1  0  0  0  0
 12 68  4  0  0  0  0
 13 14  1  0  0  0  0
 15 16  1  0  0  0  0
 15 67  4  0  0  0  0
 16 17  1  0  0  0  0
 17 18  1  0  0  0  0
 17 19  1  0  0  0  0
 17 20  1  0  0  0  0
 20 21  1  0  0  0  0
 21 22  1  0  0  0  0
 22 23  1  0  0  0  0
 22 66  2  0  0  0  0
 23 24  1  0  0  0  0
 23 65  1  0  0  0  0
 24 25  1  0  0  0  0
 25 26  1  0  0  0  0
 25 63  1  0  0  0  0
 26 27  1  0  0  0  0
 26 62  2  0  0  0  0
 27 28  1  0  0  0  0
 27 55  1  0  0  0  0
 28 29  1  0  0  0  0
 29 30  1  0  0  0  0
 29 54  2  0  0  0  0
 30 31  1  0  0  0  0
 30 34  1  0  0  0  0
 31 32  1  0  0  0  0
 31 33  1  0  0  0  0
 34 35  1  0  0  0  0
 34 53  1  0  0  0  0
 35 36  1  0  0  0  0
 35 52  2  0  0  0  0
 36 37  1  0  0  0  0
 36 51  1  0  0  0  0
 36 73  1  0  0  0  0
 37 38  1  0  0  0  0
 38 39  1  0  0  0  0
 39 40  1  0  0  0  0
 39 50  1  0  0  0  0
 40 41  1  0  0  0  0
 40 49  2  0  0  0  0
 41 42  1  0  0  0  0
 42 43  1  0  0  0  0
 43 44  1  0  0  0  0
 43 47  1  0  0  0  0
 43 48  1  0  0  0  0
 44 45  1  0  0  0  0
 44 46  1  0  0  0  0
 50 51  1  0  0  0  0
 55 56  1  0  0  0  0
 56 57  1  0  0  0  0
 56 61  1  0  0  0  0
 57 58  1  0  0  0  0
 58 59  1  0  0  0  0
 58 71  1  0  0  0  0
 59 60  1  0  0  0  0
 60 61  1  0  0  0  0
 63 64  1  0  0  0  0
 64 65  1  0  0  0  0
 67 68  4  0  0  0  0
 67 72  4  0  0  0  0
 68 69  4  0  0  0  0
 69 70  4  0  0  0  0
 70 71  4  0  0  0  0
 71 72  4  0  0  0  0
M  END
$$$$
