mol_ETKDG1_61
  PyMOL3.1          3D                             0

 73 79  0  0  0  0  0  0  0  0999 V2000
   -4.6502    4.4336    3.1020 C   0  0  0  0  0  0  0  0  0  0  0  0
   -3.4392    3.7505    3.6159 C   0  0  0  0  0  0  0  0  0  0  0  0
   -2.3194    4.5924    3.8225 O   0  0  0  0  0  0  0  0  0  0  0  0
   -1.6341    5.0336    2.6704 C   0  0  0  0  0  0  0  0  0  0  0  0
   -3.6947    3.0362    4.8790 C   0  0  0  0  0  0  0  0  0  0  0  0
   -3.8143    3.7539    5.9851 N   0  0  0  0  0  0  0  0  0  0  0  0
   -4.1164    3.1748    7.1684 C   0  0  0  0  0  0  0  0  0  0  0  0
   -4.3301    1.7957    7.2759 C   0  0  0  0  0  0  0  0  0  0  0  0
   -4.2167    1.0193    6.1165 C   0  0  0  0  0  0  0  0  0  0  0  0
   -3.8626    1.6520    4.9143 C   0  0  0  0  0  0  0  0  0  0  0  0
   -3.7079    0.8328    3.7331 C   0  0  0  0  0  0  0  0  0  0  0  0
   -4.7674    0.4057    2.9993 N   0  0  0  0  0  0  0  0  0  0  0  0
   -6.2233    0.7210    3.2153 C   0  0  0  0  0  0  0  0  0  0  0  0
   -7.0021   -0.4117    3.7167 C   0  0  0  0  0  0  0  0  0  0  0  0
   -2.4820    0.4147    3.1447 C   0  0  0  0  0  0  0  0  0  0  0  0
   -1.0363    0.7017    3.5147 C   0  0  0  0  0  0  0  0  0  0  0  0
   -0.3708   -0.2928    4.5803 C   0  0  0  0  0  0  0  0  0  0  0  0
    1.0245    0.2287    4.8831 C   0  0  0  0  0  0  0  0  0  0  0  0
   -1.0718   -0.2618    5.8885 C   0  0  0  0  0  0  0  0  0  0  0  0
   -0.2925   -1.7326    4.0941 C   0  0  0  0  0  0  0  0  0  0  0  0
    0.8680   -2.1042    3.2024 O   0  0  0  0  0  0  0  0  0  0  0  0
    1.5515   -3.3602    3.2398 C   0  0  0  0  0  0  0  0  0  0  0  0
    2.6579   -3.6353    2.2315 C   0  0  0  0  0  0  0  0  0  0  0  0
    2.9851   -2.4360    1.5126 N   0  0  0  0  0  0  0  0  0  0  0  0
    4.0024   -2.5050    0.5604 N   0  0  0  0  0  0  0  0  0  0  0  0
    3.7936   -2.1026   -0.7315 C   0  0  0  0  0  0  0  0  0  0  0  0
    2.4291   -1.6136   -1.1122 C   0  0  0  0  0  0  0  0  0  0  0  0
    2.4855   -0.4877   -2.0233 N   0  0  0  0  0  0  0  0  0  0  0  0
    2.2037    0.7756   -1.6503 C   0  0  0  0  0  0  0  0  0  0  0  0
    2.1264    1.7826   -2.7548 C   0  0  0  0  0  0  0  0  0  0  0  0
    3.3723    2.7111   -2.8911 C   0  0  0  0  0  0  0  0  0  0  0  0
    3.5166    3.2772   -4.2625 C   0  0  0  0  0  0  0  0  0  0  0  0
    4.6318    2.1719   -2.3250 C   0  0  0  0  0  0  0  0  0  0  0  0
    0.8979    2.5514   -2.5274 N   0  0  0  0  0  0  0  0  0  0  0  0
   -0.3051    1.9951   -2.9148 C   0  0  0  0  0  0  0  0  0  0  0  0
   -1.6638    2.6055   -2.6784 C   0  0  0  0  0  0  0  0  0  0  0  0
   -2.7926    1.8499   -3.4025 C   0  0  0  0  0  0  0  0  0  0  0  0
   -4.1380    2.3772   -3.0479 C   0  0  0  0  0  0  0  0  0  0  0  0
   -4.3073    2.5109   -1.5862 N   0  0  0  0  0  0  0  0  0  0  0  0
   -5.4119    2.0930   -0.8935 C   0  0  0  0  0  0  0  0  0  0  0  0
   -6.4107    1.2840   -1.4374 C   0  0  0  0  0  0  0  0  0  0  0  0
   -7.3595    0.6507   -1.7454 C   0  0  0  0  0  0  0  0  0  0  0  0
   -8.4399   -0.1106   -2.2248 C   0  0  0  0  0  0  0  0  0  0  0  0
   -9.6652    0.3935   -1.6948 N   0  0  0  0  0  0  0  0  0  0  0  0
   -9.9995    1.7503   -1.8812 C   0  0  0  0  0  0  0  0  0  0  0  0
  -10.5693   -0.3782   -0.9442 C   0  0  0  0  0  0  0  0  0  0  0  0
   -8.4730   -0.0440   -3.7493 C   0  0  0  0  0  0  0  0  0  0  0  0
   -8.2496   -1.5622   -1.8598 C   0  0  0  0  0  0  0  0  0  0  0  0
   -5.5343    2.4273    0.2972 O   0  0  0  0  0  0  0  0  0  0  0  0
   -3.2387    3.1361   -0.8609 C   0  0  0  0  0  0  0  0  0  0  0  0
   -1.9335    2.5186   -1.1835 C   0  0  0  0  0  0  0  0  0  0  0  0
   -0.2639    0.8844   -3.4804 O   0  0  0  0  0  0  0  0  0  0  0  0
    0.9792    3.8324   -1.7995 C   0  0  0  0  0  0  0  0  0  0  0  0
    1.8924    1.0331   -0.4995 O   0  0  0  0  0  0  0  0  0  0  0  0
    1.6051   -2.7924   -1.7822 C   0  0  0  0  0  0  0  0  0  0  0  0
    0.1243   -2.4517   -2.1074 C   0  0  0  0  0  0  0  0  0  0  0  0
   -0.6257   -2.4307   -0.8124 C   0  0  0  0  0  0  0  0  0  0  0  0
   -2.0378   -2.2285   -1.0107 N   0  0  0  0  0  0  0  0  0  0  0  0
   -2.6657   -3.1433   -1.9777 C   0  0  0  0  0  0  0  0  0  0  0  0
   -1.8183   -3.2471   -3.2604 C   0  0  0  0  0  0  0  0  0  0  0  0
   -0.4062   -3.5134   -2.9470 O   0  0  0  0  0  0  0  0  0  0  0  0
    4.6767   -2.1842   -1.5972 O   0  0  0  0  0  0  0  0  0  0  0  0
    5.3019   -2.9652    1.0539 C   0  0  0  0  0  0  0  0  0  0  0  0
    5.1079   -4.2714    1.8543 C   0  0  0  0  0  0  0  0  0  0  0  0
    3.9667   -4.1811    2.8797 C   0  0  0  0  0  0  0  0  0  0  0  0
    1.2958   -4.2631    4.0601 O   0  0  0  0  0  0  0  0  0  0  0  0
   -2.8993   -0.3297    2.0252 C   0  0  0  0  0  0  0  0  0  0  0  0
   -4.2912   -0.3163    1.9779 C   0  0  0  0  0  0  0  0  0  0  0  0
   -4.9692   -0.9938    0.9091 C   0  0  0  0  0  0  0  0  0  0  0  0
   -4.1783   -1.6037   -0.0660 C   0  0  0  0  0  0  0  0  0  0  0  0
   -2.7853   -1.6009   -0.0054 C   0  0  0  0  0  0  0  0  0  0  0  0
   -2.1240   -0.9489    1.0556 C   0  0  0  0  0  0  0  0  0  0  0  0
   -1.6875    3.9167   -3.1150 F   0  0  0  0  0  0  0  0  0  0  0  0
  1  2  1  0  0  0  0
  2  3  1  0  0  0  0
  2  5  1  0  0  0  0
  3  4  1  0  0  0  0
  5  6  4  0  0  0  0
  5 10  4  0  0  0  0
  6  7  4  0  0  0  0
  7  8  4  0  0  0  0
  8  9  4  0  0  0  0
  9 10  4  0  0  0  0
 10 11  1  0  0  0  0
 11 12  4  0  0  0  0
 11 15  4  0  0  0  0
 12 13  1  0  0  0  0
 12 68  4  0  0  0  0
 13 14  1  0  0  0  0
 15 16  1  0  0  0  0
 15 67  4  0  0  0  0
 16 17  1  0  0  0  0
 17 18  1  0  0  0  0
 17 19  1  0  0  0  0
 17 20  1  0  0  0  0
 20 21  1  0  0  0  0
 21 22  1  0  0  0  0
 22 23  1  0  0  0  0
 22 66  2  0  0  0  0
 23 24  1  0  0  0  0
 23 65  1  0  0  0  0
 24 25  1  0  0  0  0
 25 26  1  0  0  0  0
 25 63  1  0  0  0  0
 26 27  1  0  0  0  0
 26 62  2  0  0  0  0
 27 28  1  0  0  0  0
 27 55  1  0  0  0  0
 28 29  1  0  0  0  0
 29 30  1  0  0  0  0
 29 54  2  0  0  0  0
 30 31  1  0  0  0  0
 30 34  1  0  0  0  0
 31 32  1  0  0  0  0
 31 33  1  0  0  0  0
 34 35  1  0  0  0  0
 34 53  1  0  0  0  0
 35 36  1  0  0  0  0
 35 52  2  0  0  0  0
 36 37  1  0  0  0  0
 36 51  1  0  0  0  0
 36 73  1  0  0  0  0
 37 38  1  0  0  0  0
 38 39  1  0  0  0  0
 39 40  1  0  0  0  0
 39 50  1  0  0  0  0
 40 41  1  0  0  0  0
 40 49  2  0  0  0  0
 41 42  1  0  0  0  0
 42 43  1  0  0  0  0
 43 44  1  0  0  0  0
 43 47  1  0  0  0  0
 43 48  1  0  0  0  0
 44 45  1  0  0  0  0
 44 46  1  0  0  0  0
 50 51  1  0  0  0  0
 55 56  1  0  0  0  0
 56 57  1  0  0  0  0
 56 61  1  0  0  0  0
 57 58  1  0  0  0  0
 58 59  1  0  0  0  0
 58 71  1  0  0  0  0
 59 60  1  0  0  0  0
 60 61  1  0  0  0  0
 63 64  1  0  0  0  0
 64 65  1  0  0  0  0
 67 68  4  0  0  0  0
 67 72  4  0  0  0  0
 68 69  4  0  0  0  0
 69 70  4  0  0  0  0
 70 71  4  0  0  0  0
 71 72  4  0  0  0  0
M  END
$$$$
