mol_ETKDG0_330
  PyMOL3.1          3D                             0

 73 79  0  0  0  0  0  0  0  0999 V2000
   -1.7900    5.9004    3.8713 C   0  0  0  0  0  0  0  0  0  0  0  0
   -3.1024    5.7782    4.4982 C   0  0  0  0  0  0  0  0  0  0  0  0
   -3.6458    7.0525    4.8962 O   0  0  0  0  0  0  0  0  0  0  0  0
   -4.4916    7.6884    3.9713 C   0  0  0  0  0  0  0  0  0  0  0  0
   -3.1396    4.8649    5.6754 C   0  0  0  0  0  0  0  0  0  0  0  0
   -3.0138    5.3914    6.8812 N   0  0  0  0  0  0  0  0  0  0  0  0
   -3.1296    4.6416    8.0027 C   0  0  0  0  0  0  0  0  0  0  0  0
   -3.3460    3.2657    7.9387 C   0  0  0  0  0  0  0  0  0  0  0  0
   -3.4583    2.6809    6.6702 C   0  0  0  0  0  0  0  0  0  0  0  0
   -3.3031    3.4937    5.5323 C   0  0  0  0  0  0  0  0  0  0  0  0
   -3.3386    2.8562    4.2389 C   0  0  0  0  0  0  0  0  0  0  0  0
   -4.4736    2.7276    3.5136 N   0  0  0  0  0  0  0  0  0  0  0  0
   -5.8353    3.2727    3.8582 C   0  0  0  0  0  0  0  0  0  0  0  0
   -6.8390    2.2751    4.1649 C   0  0  0  0  0  0  0  0  0  0  0  0
   -2.2159    2.3546    3.5129 C   0  0  0  0  0  0  0  0  0  0  0  0
   -0.7311    2.4581    3.7536 C   0  0  0  0  0  0  0  0  0  0  0  0
   -0.0342    1.4035    4.6935 C   0  0  0  0  0  0  0  0  0  0  0  0
    1.4640    1.6595    4.6587 C   0  0  0  0  0  0  0  0  0  0  0  0
   -0.3962    1.5985    6.1210 C   0  0  0  0  0  0  0  0  0  0  0  0
   -0.3231   -0.0016    4.2625 C   0  0  0  0  0  0  0  0  0  0  0  0
    0.6416   -0.5908    3.2500 O   0  0  0  0  0  0  0  0  0  0  0  0
    1.1030   -1.9393    3.2708 C   0  0  0  0  0  0  0  0  0  0  0  0
    2.0610   -2.4305    2.2024 C   0  0  0  0  0  0  0  0  0  0  0  0
    2.5990   -1.3360    1.4329 N   0  0  0  0  0  0  0  0  0  0  0  0
    3.5432   -1.6566    0.4523 N   0  0  0  0  0  0  0  0  0  0  0  0
    3.3843   -1.2531   -0.8532 C   0  0  0  0  0  0  0  0  0  0  0  0
    2.1918   -0.4205   -1.2260 C   0  0  0  0  0  0  0  0  0  0  0  0
    2.5021    0.5348   -2.2720 N   0  0  0  0  0  0  0  0  0  0  0  0
    2.8087    1.8254   -2.0429 C   0  0  0  0  0  0  0  0  0  0  0  0
    2.9044    2.7019   -3.2546 C   0  0  0  0  0  0  0  0  0  0  0  0
    4.3409    3.2799   -3.4986 C   0  0  0  0  0  0  0  0  0  0  0  0
    4.4756    3.9554   -4.8304 C   0  0  0  0  0  0  0  0  0  0  0  0
    5.4272    2.2776   -3.2424 C   0  0  0  0  0  0  0  0  0  0  0  0
    1.8853    3.7437   -3.0789 N   0  0  0  0  0  0  0  0  0  0  0  0
    0.5938    3.4695   -3.5066 C   0  0  0  0  0  0  0  0  0  0  0  0
   -0.5961    4.3696   -3.2840 C   0  0  0  0  0  0  0  0  0  0  0  0
   -1.8072    3.9953   -4.1611 C   0  0  0  0  0  0  0  0  0  0  0  0
   -3.0251    4.7986   -3.7896 C   0  0  0  0  0  0  0  0  0  0  0  0
   -3.2623    4.7230   -2.3313 N   0  0  0  0  0  0  0  0  0  0  0  0
   -4.4481    4.3580   -1.7567 C   0  0  0  0  0  0  0  0  0  0  0  0
   -5.4213    3.6629   -2.4421 C   0  0  0  0  0  0  0  0  0  0  0  0
   -6.3140    3.1010   -2.9138 C   0  0  0  0  0  0  0  0  0  0  0  0
   -7.2896    2.3831   -3.6372 C   0  0  0  0  0  0  0  0  0  0  0  0
   -8.6001    2.8257   -3.2874 N   0  0  0  0  0  0  0  0  0  0  0  0
   -9.2621    3.7984   -4.0616 C   0  0  0  0  0  0  0  0  0  0  0  0
   -9.1561    2.5133   -2.0351 C   0  0  0  0  0  0  0  0  0  0  0  0
   -7.1530    0.8908   -3.3664 C   0  0  0  0  0  0  0  0  0  0  0  0
   -7.0374    2.5765   -5.1258 C   0  0  0  0  0  0  0  0  0  0  0  0
   -4.6426    4.6060   -0.5549 O   0  0  0  0  0  0  0  0  0  0  0  0
   -2.1556    5.0334   -1.4873 C   0  0  0  0  0  0  0  0  0  0  0  0
   -0.9790    4.1872   -1.8233 C   0  0  0  0  0  0  0  0  0  0  0  0
    0.3920    2.3762   -4.0722 O   0  0  0  0  0  0  0  0  0  0  0  0
    2.2396    4.9731   -2.3503 C   0  0  0  0  0  0  0  0  0  0  0  0
    2.8504    2.2540   -0.9095 O   0  0  0  0  0  0  0  0  0  0  0  0
    1.0153   -1.3394   -1.7492 C   0  0  0  0  0  0  0  0  0  0  0  0
   -0.3090   -0.5760   -2.0436 C   0  0  0  0  0  0  0  0  0  0  0  0
   -1.0255   -0.4205   -0.7432 C   0  0  0  0  0  0  0  0  0  0  0  0
   -2.3397    0.1680   -0.9166 N   0  0  0  0  0  0  0  0  0  0  0  0
   -3.1807   -0.4923   -1.9303 C   0  0  0  0  0  0  0  0  0  0  0  0
   -2.3940   -0.7363   -3.2225 C   0  0  0  0  0  0  0  0  0  0  0  0
   -1.1003   -1.3926   -2.9399 O   0  0  0  0  0  0  0  0  0  0  0  0
    4.1865   -1.5975   -1.7370 O   0  0  0  0  0  0  0  0  0  0  0  0
    4.7229   -2.3761    0.9224 C   0  0  0  0  0  0  0  0  0  0  0  0
    4.2809   -3.5971    1.7567 C   0  0  0  0  0  0  0  0  0  0  0  0
    3.2500   -3.2254    2.8214 C   0  0  0  0  0  0  0  0  0  0  0  0
    0.7685   -2.7805    4.1456 O   0  0  0  0  0  0  0  0  0  0  0  0
   -2.7892    1.8356    2.3432 C   0  0  0  0  0  0  0  0  0  0  0  0
   -4.1597    2.0961    2.3743 C   0  0  0  0  0  0  0  0  0  0  0  0
   -4.9696    1.7076    1.2542 C   0  0  0  0  0  0  0  0  0  0  0  0
   -4.3250    1.0793    0.1799 C   0  0  0  0  0  0  0  0  0  0  0  0
   -2.9459    0.8145    0.1743 C   0  0  0  0  0  0  0  0  0  0  0  0
   -2.1578    1.2080    1.2675 C   0  0  0  0  0  0  0  0  0  0  0  0
   -0.2897    5.6898   -3.5617 F   0  0  0  0  0  0  0  0  0  0  0  0
  1  2  1  0  0  0  0
  2  3  1  0  0  0  0
  2  5  1  0  0  0  0
  3  4  1  0  0  0  0
  5  6  4  0  0  0  0
  5 10  4  0  0  0  0
  6  7  4  0  0  0  0
  7  8  4  0  0  0  0
  8  9  4  0  0  0  0
  9 10  4  0  0  0  0
 10 11  1  0  0  0  0
 11 12  4  0  0  0  0
 11 15  4  0  0  0  0
 12 13  1  0  0  0  0
 12 68  4  0  0  0  0
 13 14  1  0  0  0  0
 15 16  1  0  0  0  0
 15 67  4  0  0  0  0
 16 17  1  0  0  0  0
 17 18  1  0  0  0  0
 17 19  1  0  0  0  0
 17 20  1  0  0  0  0
 20 21  1  0  0  0  0
 21 22  1  0  0  0  0
 22 23  1  0  0  0  0
 22 66  2  0  0  0  0
 23 24  1  0  0  0  0
 23 65  1  0  0  0  0
 24 25  1  0  0  0  0
 25 26  1  0  0  0  0
 25 63  1  0  0  0  0
 26 27  1  0  0  0  0
 26 62  2  0  0  0  0
 27 28  1  0  0  0  0
 27 55  1  0  0  0  0
 28 29  1  0  0  0  0
 29 30  1  0  0  0  0
 29 54  2  0  0  0  0
 30 31  1  0  0  0  0
 30 34  1  0  0  0  0
 31 32  1  0  0  0  0
 31 33  1  0  0  0  0
 34 35  1  0  0  0  0
 34 53  1  0  0  0  0
 35 36  1  0  0  0  0
 35 52  2  0  0  0  0
 36 37  1  0  0  0  0
 36 51  1  0  0  0  0
 36 73  1  0  0  0  0
 37 38  1  0  0  0  0
 38 39  1  0  0  0  0
 39 40  1  0  0  0  0
 39 50  1  0  0  0  0
 40 41  1  0  0  0  0
 40 49  2  0  0  0  0
 41 42  1  0  0  0  0
 42 43  1  0  0  0  0
 43 44  1  0  0  0  0
 43 47  1  0  0  0  0
 43 48  1  0  0  0  0
 44 45  1  0  0  0  0
 44 46  1  0  0  0  0
 50 51  1  0  0  0  0
 55 56  1  0  0  0  0
 56 57  1  0  0  0  0
 56 61  1  0  0  0  0
 57 58  1  0  0  0  0
 58 59  1  0  0  0  0
 58 71  1  0  0  0  0
 59 60  1  0  0  0  0
 60 61  1  0  0  0  0
 63 64  1  0  0  0  0
 64 65  1  0  0  0  0
 67 68  4  0  0  0  0
 67 72  4  0  0  0  0
 68 69  4  0  0  0  0
 69 70  4  0  0  0  0
 70 71  4  0  0  0  0
 71 72  4  0  0  0  0
M  END
$$$$
