mol_ETKDG4_223
  PyMOL3.1          3D                             0

 73 79  0  0  0  0  0  0  0  0999 V2000
   -2.3977   -6.0690    0.9095 C   0  0  0  0  0  0  0  0  0  0  0  0
   -2.9046   -5.1157   -0.1041 C   0  0  0  0  0  0  0  0  0  0  0  0
   -2.4070   -5.2875   -1.4064 O   0  0  0  0  0  0  0  0  0  0  0  0
   -1.0676   -4.9535   -1.6522 C   0  0  0  0  0  0  0  0  0  0  0  0
   -4.3737   -5.1039   -0.1954 C   0  0  0  0  0  0  0  0  0  0  0  0
   -4.9703   -6.1170   -0.8051 N   0  0  0  0  0  0  0  0  0  0  0  0
   -6.3185   -6.1930   -0.8866 C   0  0  0  0  0  0  0  0  0  0  0  0
   -7.1436   -5.2150   -0.3219 C   0  0  0  0  0  0  0  0  0  0  0  0
   -6.5328   -4.1395    0.3353 C   0  0  0  0  0  0  0  0  0  0  0  0
   -5.1249   -4.0859    0.3668 C   0  0  0  0  0  0  0  0  0  0  0  0
   -4.4969   -2.9461    0.9951 C   0  0  0  0  0  0  0  0  0  0  0  0
   -4.2317   -2.8865    2.3247 N   0  0  0  0  0  0  0  0  0  0  0  0
   -4.4754   -3.9461    3.3644 C   0  0  0  0  0  0  0  0  0  0  0  0
   -5.6366   -3.6573    4.2188 C   0  0  0  0  0  0  0  0  0  0  0  0
   -4.0030   -1.7875    0.3286 C   0  0  0  0  0  0  0  0  0  0  0  0
   -3.8709   -1.4712   -1.1469 C   0  0  0  0  0  0  0  0  0  0  0  0
   -5.0412   -0.6730   -1.8626 C   0  0  0  0  0  0  0  0  0  0  0  0
   -6.3885   -1.3392   -1.7051 C   0  0  0  0  0  0  0  0  0  0  0  0
   -4.7614   -0.6867   -3.3486 C   0  0  0  0  0  0  0  0  0  0  0  0
   -5.1481    0.7664   -1.3539 C   0  0  0  0  0  0  0  0  0  0  0  0
   -4.1863    1.7726   -1.9639 O   0  0  0  0  0  0  0  0  0  0  0  0
   -4.5854    3.0276   -2.5392 C   0  0  0  0  0  0  0  0  0  0  0  0
   -3.5287    4.0458   -2.9429 C   0  0  0  0  0  0  0  0  0  0  0  0
   -2.2182    3.4631   -2.9839 N   0  0  0  0  0  0  0  0  0  0  0  0
   -1.1637    4.3088   -3.3498 N   0  0  0  0  0  0  0  0  0  0  0  0
   -0.0604    4.4537   -2.5539 C   0  0  0  0  0  0  0  0  0  0  0  0
    0.0508    3.6332   -1.3020 C   0  0  0  0  0  0  0  0  0  0  0  0
    1.4251    3.2634   -1.0253 N   0  0  0  0  0  0  0  0  0  0  0  0
    1.9196    2.0340   -1.2151 C   0  0  0  0  0  0  0  0  0  0  0  0
    3.3160    1.7902   -0.7363 C   0  0  0  0  0  0  0  0  0  0  0  0
    4.3766    1.8341   -1.8893 C   0  0  0  0  0  0  0  0  0  0  0  0
    5.7800    1.6822   -1.4104 C   0  0  0  0  0  0  0  0  0  0  0  0
    4.2078    3.0201   -2.7874 C   0  0  0  0  0  0  0  0  0  0  0  0
    3.3031    0.4995   -0.0316 N   0  0  0  0  0  0  0  0  0  0  0  0
    2.8748    0.4667    1.2776 C   0  0  0  0  0  0  0  0  0  0  0  0
    2.7746   -0.7892    2.1204 C   0  0  0  0  0  0  0  0  0  0  0  0
    1.5065   -1.4986    1.7221 C   0  0  0  0  0  0  0  0  0  0  0  0
    1.3458   -2.7651    2.4819 C   0  0  0  0  0  0  0  0  0  0  0  0
    1.3459   -2.4766    3.9173 N   0  0  0  0  0  0  0  0  0  0  0  0
    0.3130   -2.9270    4.6970 C   0  0  0  0  0  0  0  0  0  0  0  0
   -0.0221   -2.3851    5.9386 C   0  0  0  0  0  0  0  0  0  0  0  0
   -0.4180   -2.0709    6.9921 C   0  0  0  0  0  0  0  0  0  0  0  0
   -0.8010   -1.5607    8.2407 C   0  0  0  0  0  0  0  0  0  0  0  0
    0.1925   -1.8411    9.2161 N   0  0  0  0  0  0  0  0  0  0  0  0
    0.9325   -0.8280    9.8352 C   0  0  0  0  0  0  0  0  0  0  0  0
    0.3771   -3.1632    9.6977 C   0  0  0  0  0  0  0  0  0  0  0  0
   -1.0352   -0.0624    8.0931 C   0  0  0  0  0  0  0  0  0  0  0  0
   -2.1208   -2.1560    8.7104 C   0  0  0  0  0  0  0  0  0  0  0  0
   -0.4080   -3.8233    4.2620 O   0  0  0  0  0  0  0  0  0  0  0  0
    2.4667   -1.7141    4.4166 C   0  0  0  0  0  0  0  0  0  0  0  0
    2.7130   -0.4814    3.6296 C   0  0  0  0  0  0  0  0  0  0  0  0
    2.5234    1.5474    1.7879 O   0  0  0  0  0  0  0  0  0  0  0  0
    3.6206   -0.7278   -0.7739 C   0  0  0  0  0  0  0  0  0  0  0  0
    1.2010    1.1528   -1.6559 O   0  0  0  0  0  0  0  0  0  0  0  0
   -0.5074    4.4541   -0.0743 C   0  0  0  0  0  0  0  0  0  0  0  0
   -0.4846    3.6792    1.2680 C   0  0  0  0  0  0  0  0  0  0  0  0
   -1.6435    2.7496    1.2583 C   0  0  0  0  0  0  0  0  0  0  0  0
   -1.8005    2.0575    2.5114 N   0  0  0  0  0  0  0  0  0  0  0  0
   -1.7886    2.9118    3.7058 C   0  0  0  0  0  0  0  0  0  0  0  0
   -0.6604    3.9483    3.6422 C   0  0  0  0  0  0  0  0  0  0  0  0
   -0.6361    4.6404    2.3463 O   0  0  0  0  0  0  0  0  0  0  0  0
    0.8332    5.2786   -2.8193 O   0  0  0  0  0  0  0  0  0  0  0  0
   -1.2919    4.9582   -4.6512 C   0  0  0  0  0  0  0  0  0  0  0  0
   -2.6711    5.6306   -4.7524 C   0  0  0  0  0  0  0  0  0  0  0  0
   -3.8157    4.7060   -4.3228 C   0  0  0  0  0  0  0  0  0  0  0  0
   -5.7735    3.3430   -2.7350 O   0  0  0  0  0  0  0  0  0  0  0  0
   -3.4971   -0.9984    1.3818 C   0  0  0  0  0  0  0  0  0  0  0  0
   -3.6420   -1.7109    2.5728 C   0  0  0  0  0  0  0  0  0  0  0  0
   -3.1470   -1.1521    3.7967 C   0  0  0  0  0  0  0  0  0  0  0  0
   -2.5329    0.0963    3.7255 C   0  0  0  0  0  0  0  0  0  0  0  0
   -2.4067    0.8008    2.5280 C   0  0  0  0  0  0  0  0  0  0  0  0
   -2.8814    0.2432    1.3227 C   0  0  0  0  0  0  0  0  0  0  0  0
    3.8845   -1.5898    1.9471 F   0  0  0  0  0  0  0  0  0  0  0  0
  1  2  1  0  0  0  0
  2  3  1  0  0  0  0
  2  5  1  0  0  0  0
  3  4  1  0  0  0  0
  5  6  4  0  0  0  0
  5 10  4  0  0  0  0
  6  7  4  0  0  0  0
  7  8  4  0  0  0  0
  8  9  4  0  0  0  0
  9 10  4  0  0  0  0
 10 11  1  0  0  0  0
 11 12  4  0  0  0  0
 11 15  4  0  0  0  0
 12 13  1  0  0  0  0
 12 68  4  0  0  0  0
 13 14  1  0  0  0  0
 15 16  1  0  0  0  0
 15 67  4  0  0  0  0
 16 17  1  0  0  0  0
 17 18  1  0  0  0  0
 17 19  1  0  0  0  0
 17 20  1  0  0  0  0
 20 21  1  0  0  0  0
 21 22  1  0  0  0  0
 22 23  1  0  0  0  0
 22 66  2  0  0  0  0
 23 24  1  0  0  0  0
 23 65  1  0  0  0  0
 24 25  1  0  0  0  0
 25 26  1  0  0  0  0
 25 63  1  0  0  0  0
 26 27  1  0  0  0  0
 26 62  2  0  0  0  0
 27 28  1  0  0  0  0
 27 55  1  0  0  0  0
 28 29  1  0  0  0  0
 29 30  1  0  0  0  0
 29 54  2  0  0  0  0
 30 31  1  0  0  0  0
 30 34  1  0  0  0  0
 31 32  1  0  0  0  0
 31 33  1  0  0  0  0
 34 35  1  0  0  0  0
 34 53  1  0  0  0  0
 35 36  1  0  0  0  0
 35 52  2  0  0  0  0
 36 37  1  0  0  0  0
 36 51  1  0  0  0  0
 36 73  1  0  0  0  0
 37 38  1  0  0  0  0
 38 39  1  0  0  0  0
 39 40  1  0  0  0  0
 39 50  1  0  0  0  0
 40 41  1  0  0  0  0
 40 49  2  0  0  0  0
 41 42  1  0  0  0  0
 42 43  1  0  0  0  0
 43 44  1  0  0  0  0
 43 47  1  0  0  0  0
 43 48  1  0  0  0  0
 44 45  1  0  0  0  0
 44 46  1  0  0  0  0
 50 51  1  0  0  0  0
 55 56  1  0  0  0  0
 56 57  1  0  0  0  0
 56 61  1  0  0  0  0
 57 58  1  0  0  0  0
 58 59  1  0  0  0  0
 58 71  1  0  0  0  0
 59 60  1  0  0  0  0
 60 61  1  0  0  0  0
 63 64  1  0  0  0  0
 64 65  1  0  0  0  0
 67 68  4  0  0  0  0
 67 72  4  0  0  0  0
 68 69  4  0  0  0  0
 69 70  4  0  0  0  0
 70 71  4  0  0  0  0
 71 72  4  0  0  0  0
M  END
$$$$
