mol_bioactive_25
  PyMOL3.1          3D                             0

 73 79  0  0  0  0  0  0  0  0999 V2000
    4.6101   -4.8871   -1.3840 C   0  0  0  0  0  0  0  0  0  0  0  0
    5.0443   -3.6706   -0.6470 C   0  0  0  0  0  0  0  0  0  0  0  0
    6.4479   -3.4219   -0.6971 O   0  0  0  0  0  0  0  0  0  0  0  0
    6.9657   -2.8331   -1.8608 C   0  0  0  0  0  0  0  0  0  0  0  0
    4.6531   -3.6881    0.7958 C   0  0  0  0  0  0  0  0  0  0  0  0
    5.4208   -4.3596    1.6400 N   0  0  0  0  0  0  0  0  0  0  0  0
    5.1058   -4.4677    2.9528 C   0  0  0  0  0  0  0  0  0  0  0  0
    3.9594   -3.8838    3.4843 C   0  0  0  0  0  0  0  0  0  0  0  0
    3.1301   -3.1768    2.6159 C   0  0  0  0  0  0  0  0  0  0  0  0
    3.4938   -3.0811    1.2625 C   0  0  0  0  0  0  0  0  0  0  0  0
    2.6472   -2.2779    0.4120 C   0  0  0  0  0  0  0  0  0  0  0  0
    1.4043   -2.6297   -0.0226 N   0  0  0  0  0  0  0  0  0  0  0  0
    0.7046   -3.9351    0.1753 C   0  0  0  0  0  0  0  0  0  0  0  0
    0.7582   -4.7849   -1.0527 C   0  0  0  0  0  0  0  0  0  0  0  0
    2.9664   -0.9910   -0.0625 C   0  0  0  0  0  0  0  0  0  0  0  0
    4.2249   -0.2700    0.0102 C   0  0  0  0  0  0  0  0  0  0  0  0
    4.5660    0.6304    1.2061 C   0  0  0  0  0  0  0  0  0  0  0  0
    5.3531   -0.0754    2.2920 C   0  0  0  0  0  0  0  0  0  0  0  0
    3.3984    1.2717    1.8636 C   0  0  0  0  0  0  0  0  0  0  0  0
    5.4481    1.5960    0.6304 C   0  0  0  0  0  0  0  0  0  0  0  0
    4.9113    2.8491    0.0152 O   0  0  0  0  0  0  0  0  0  0  0  0
    5.7055    3.6509   -0.8476 C   0  0  0  0  0  0  0  0  0  0  0  0
    5.2324    5.0354   -1.1641 C   0  0  0  0  0  0  0  0  0  0  0  0
    4.2408    5.4496   -0.2085 N   0  0  0  0  0  0  0  0  0  0  0  0
    3.7912    6.7612   -0.2722 N   0  0  0  0  0  0  0  0  0  0  0  0
    2.4656    7.0477   -0.3817 C   0  0  0  0  0  0  0  0  0  0  0  0
    1.4536    5.9339   -0.5390 C   0  0  0  0  0  0  0  0  0  0  0  0
    0.2080    6.2982    0.1344 N   0  0  0  0  0  0  0  0  0  0  0  0
   -0.1474    5.9355    1.3671 C   0  0  0  0  0  0  0  0  0  0  0  0
   -1.5010    6.3836    1.8346 C   0  0  0  0  0  0  0  0  0  0  0  0
   -1.4283    7.5104    2.9238 C   0  0  0  0  0  0  0  0  0  0  0  0
   -0.5162    8.6130    2.5472 C   0  0  0  0  0  0  0  0  0  0  0  0
   -2.7788    8.0175    3.3575 C   0  0  0  0  0  0  0  0  0  0  0  0
   -2.2093    5.1808    2.2769 N   0  0  0  0  0  0  0  0  0  0  0  0
   -2.8500    4.4064    1.3319 C   0  0  0  0  0  0  0  0  0  0  0  0
   -3.5060    3.0809    1.6283 C   0  0  0  0  0  0  0  0  0  0  0  0
   -2.3943    2.1064    1.8835 C   0  0  0  0  0  0  0  0  0  0  0  0
   -2.9146    0.7840    2.2282 C   0  0  0  0  0  0  0  0  0  0  0  0
   -3.7657    0.2823    1.1638 N   0  0  0  0  0  0  0  0  0  0  0  0
   -3.4986   -0.9718    0.6928 C   0  0  0  0  0  0  0  0  0  0  0  0
   -4.0742   -1.5568   -0.4243 C   0  0  0  0  0  0  0  0  0  0  0  0
   -4.4570   -2.2881   -1.2577 C   0  0  0  0  0  0  0  0  0  0  0  0
   -4.9933   -3.0503   -2.2980 C   0  0  0  0  0  0  0  0  0  0  0  0
   -5.6338   -4.2386   -1.8289 N   0  0  0  0  0  0  0  0  0  0  0  0
   -6.3634   -5.0728   -2.6845 C   0  0  0  0  0  0  0  0  0  0  0  0
   -5.4509   -4.7084   -0.5190 C   0  0  0  0  0  0  0  0  0  0  0  0
   -3.8740   -3.4405   -3.2706 C   0  0  0  0  0  0  0  0  0  0  0  0
   -5.9917   -2.1905   -3.0552 C   0  0  0  0  0  0  0  0  0  0  0  0
   -2.6532   -1.6492    1.2797 O   0  0  0  0  0  0  0  0  0  0  0  0
   -4.8169    1.1596    0.7063 C   0  0  0  0  0  0  0  0  0  0  0  0
   -4.3622    2.5463    0.4599 C   0  0  0  0  0  0  0  0  0  0  0  0
   -2.8424    4.8107    0.1611 O   0  0  0  0  0  0  0  0  0  0  0  0
   -2.0965    4.7712    3.6829 C   0  0  0  0  0  0  0  0  0  0  0  0
    0.5459    5.1704    2.0040 O   0  0  0  0  0  0  0  0  0  0  0  0
    1.2145    5.7384   -2.0833 C   0  0  0  0  0  0  0  0  0  0  0  0
    0.5921    4.5030   -2.7614 C   0  0  0  0  0  0  0  0  0  0  0  0
    0.6673    3.2966   -1.9522 C   0  0  0  0  0  0  0  0  0  0  0  0
    0.0141    2.1456   -2.4945 N   0  0  0  0  0  0  0  0  0  0  0  0
   -0.9147    2.2849   -3.5710 C   0  0  0  0  0  0  0  0  0  0  0  0
   -1.3326    3.6734   -3.9315 C   0  0  0  0  0  0  0  0  0  0  0  0
   -0.7767    4.7743   -3.1494 O   0  0  0  0  0  0  0  0  0  0  0  0
    2.0711    8.2259   -0.4203 O   0  0  0  0  0  0  0  0  0  0  0  0
    4.8198    7.7916   -0.1778 C   0  0  0  0  0  0  0  0  0  0  0  0
    5.9291    7.4903   -1.2107 C   0  0  0  0  0  0  0  0  0  0  0  0
    6.4042    6.0537   -1.1343 C   0  0  0  0  0  0  0  0  0  0  0  0
    6.7869    3.3131   -1.4156 O   0  0  0  0  0  0  0  0  0  0  0  0
    1.8163   -0.5552   -0.7435 C   0  0  0  0  0  0  0  0  0  0  0  0
    0.8934   -1.5905   -0.7172 C   0  0  0  0  0  0  0  0  0  0  0  0
   -0.3756   -1.4006   -1.3705 C   0  0  0  0  0  0  0  0  0  0  0  0
   -0.6363   -0.1456   -1.9576 C   0  0  0  0  0  0  0  0  0  0  0  0
    0.3026    0.8954   -1.9335 C   0  0  0  0  0  0  0  0  0  0  0  0
    1.5494    0.6851   -1.3277 C   0  0  0  0  0  0  0  0  0  0  0  0
   -4.3715    3.1843    2.7083 F   0  0  0  0  0  0  0  0  0  0  0  0
  1  2  1  0  0  0  0
  2  3  1  0  0  0  0
  2  5  1  0  0  0  0
  3  4  1  0  0  0  0
  5  6  4  0  0  0  0
  5 10  4  0  0  0  0
  6  7  4  0  0  0  0
  7  8  4  0  0  0  0
  8  9  4  0  0  0  0
  9 10  4  0  0  0  0
 10 11  1  0  0  0  0
 11 12  4  0  0  0  0
 11 15  4  0  0  0  0
 12 13  1  0  0  0  0
 12 68  4  0  0  0  0
 13 14  1  0  0  0  0
 15 16  1  0  0  0  0
 15 67  4  0  0  0  0
 16 17  1  0  0  0  0
 17 18  1  0  0  0  0
 17 19  1  0  0  0  0
 17 20  1  0  0  0  0
 20 21  1  0  0  0  0
 21 22  1  0  0  0  0
 22 23  1  0  0  0  0
 22 66  2  0  0  0  0
 23 24  1  0  0  0  0
 23 65  1  0  0  0  0
 24 25  1  0  0  0  0
 25 26  1  0  0  0  0
 25 63  1  0  0  0  0
 26 27  1  0  0  0  0
 26 62  2  0  0  0  0
 27 28  1  0  0  0  0
 27 55  1  0  0  0  0
 28 29  1  0  0  0  0
 29 30  1  0  0  0  0
 29 54  2  0  0  0  0
 30 31  1  0  0  0  0
 30 34  1  0  0  0  0
 31 32  1  0  0  0  0
 31 33  1  0  0  0  0
 34 35  1  0  0  0  0
 34 53  1  0  0  0  0
 35 36  1  0  0  0  0
 35 52  2  0  0  0  0
 36 37  1  0  0  0  0
 36 51  1  0  0  0  0
 36 73  1  0  0  0  0
 37 38  1  0  0  0  0
 38 39  1  0  0  0  0
 39 40  1  0  0  0  0
 39 50  1  0  0  0  0
 40 41  1  0  0  0  0
 40 49  2  0  0  0  0
 41 42  1  0  0  0  0
 42 43  1  0  0  0  0
 43 44  1  0  0  0  0
 43 47  1  0  0  0  0
 43 48  1  0  0  0  0
 44 45  1  0  0  0  0
 44 46  1  0  0  0  0
 50 51  1  0  0  0  0
 55 56  1  0  0  0  0
 56 57  1  0  0  0  0
 56 61  1  0  0  0  0
 57 58  1  0  0  0  0
 58 59  1  0  0  0  0
 58 71  1  0  0  0  0
 59 60  1  0  0  0  0
 60 61  1  0  0  0  0
 63 64  1  0  0  0  0
 64 65  1  0  0  0  0
 67 68  4  0  0  0  0
 67 72  4  0  0  0  0
 68 69  4  0  0  0  0
 69 70  4  0  0  0  0
 70 71  4  0  0  0  0
 71 72  4  0  0  0  0
M  END
$$$$
