mol_bioactive_11
  PyMOL3.1          3D                             0

 73 79  0  0  0  0  0  0  0  0999 V2000
   -0.4136    1.8548    5.7618 C   0  0  0  0  0  0  0  0  0  0  0  0
   -0.6534    0.4151    5.9193 C   0  0  0  0  0  0  0  0  0  0  0  0
    0.3937   -0.4276    5.4421 O   0  0  0  0  0  0  0  0  0  0  0  0
    1.7227   -0.1997    5.7918 C   0  0  0  0  0  0  0  0  0  0  0  0
   -1.8705   -0.1371    5.3351 C   0  0  0  0  0  0  0  0  0  0  0  0
   -2.4420   -0.6892    6.3845 N   0  0  0  0  0  0  0  0  0  0  0  0
   -3.6355   -1.2272    6.3400 C   0  0  0  0  0  0  0  0  0  0  0  0
   -4.3839   -1.2225    5.1866 C   0  0  0  0  0  0  0  0  0  0  0  0
   -3.8380   -0.6460    4.0385 C   0  0  0  0  0  0  0  0  0  0  0  0
   -2.5570   -0.1096    4.1041 C   0  0  0  0  0  0  0  0  0  0  0  0
   -2.0075    0.4361    2.8771 C   0  0  0  0  0  0  0  0  0  0  0  0
   -2.3262    1.6645    2.4051 N   0  0  0  0  0  0  0  0  0  0  0  0
   -3.2188    2.6850    3.0422 C   0  0  0  0  0  0  0  0  0  0  0  0
   -4.4702    2.9147    2.3489 C   0  0  0  0  0  0  0  0  0  0  0  0
   -1.0607   -0.1937    2.0161 C   0  0  0  0  0  0  0  0  0  0  0  0
   -0.3250   -1.4947    2.1253 C   0  0  0  0  0  0  0  0  0  0  0  0
   -0.9893   -2.8058    1.5170 C   0  0  0  0  0  0  0  0  0  0  0  0
   -2.2187   -3.2228    2.3014 C   0  0  0  0  0  0  0  0  0  0  0  0
    0.0039   -3.9095    1.6955 C   0  0  0  0  0  0  0  0  0  0  0  0
   -1.3776   -2.7112    0.0285 C   0  0  0  0  0  0  0  0  0  0  0  0
   -0.3143   -3.0884   -0.9850 O   0  0  0  0  0  0  0  0  0  0  0  0
   -0.5371   -3.8609   -2.1764 C   0  0  0  0  0  0  0  0  0  0  0  0
    0.6297   -4.0968   -3.1411 C   0  0  0  0  0  0  0  0  0  0  0  0
    1.8676   -3.8444   -2.4854 N   0  0  0  0  0  0  0  0  0  0  0  0
    3.0560   -4.0369   -3.1813 N   0  0  0  0  0  0  0  0  0  0  0  0
    3.9864   -3.0306   -3.2669 C   0  0  0  0  0  0  0  0  0  0  0  0
    3.6604   -1.6794   -2.6974 C   0  0  0  0  0  0  0  0  0  0  0  0
    4.8085   -1.0274   -2.0804 N   0  0  0  0  0  0  0  0  0  0  0  0
    5.0550   -0.9785   -0.7664 C   0  0  0  0  0  0  0  0  0  0  0  0
    6.1796   -0.1036   -0.3229 C   0  0  0  0  0  0  0  0  0  0  0  0
    7.5137   -0.8569   -0.0210 C   0  0  0  0  0  0  0  0  0  0  0  0
    8.6480    0.0714    0.2704 C   0  0  0  0  0  0  0  0  0  0  0  0
    7.8655   -1.8689   -1.0657 C   0  0  0  0  0  0  0  0  0  0  0  0
    5.6790    0.6625    0.8267 N   0  0  0  0  0  0  0  0  0  0  0  0
    4.9481    1.8109    0.5898 C   0  0  0  0  0  0  0  0  0  0  0  0
    4.3117    2.6733    1.6574 C   0  0  0  0  0  0  0  0  0  0  0  0
    3.9806    4.0843    1.1485 C   0  0  0  0  0  0  0  0  0  0  0  0
    3.2367    4.8751    2.1593 C   0  0  0  0  0  0  0  0  0  0  0  0
    2.0781    4.1323    2.6801 N   0  0  0  0  0  0  0  0  0  0  0  0
    0.8144    4.6592    2.7395 C   0  0  0  0  0  0  0  0  0  0  0  0
    0.4393    5.7437    1.9690 C   0  0  0  0  0  0  0  0  0  0  0  0
   -0.0017    6.6547    1.3852 C   0  0  0  0  0  0  0  0  0  0  0  0
   -0.3965    7.7518    0.5881 C   0  0  0  0  0  0  0  0  0  0  0  0
   -1.6004    8.3237    1.0866 N   0  0  0  0  0  0  0  0  0  0  0  0
   -1.6172    8.8986    2.3705 C   0  0  0  0  0  0  0  0  0  0  0  0
   -2.8143    8.2643    0.4003 C   0  0  0  0  0  0  0  0  0  0  0  0
   -0.5407    7.2881   -0.8344 C   0  0  0  0  0  0  0  0  0  0  0  0
    0.6952    8.8121    0.5879 C   0  0  0  0  0  0  0  0  0  0  0  0
   -0.0429    4.1264    3.4484 O   0  0  0  0  0  0  0  0  0  0  0  0
    2.3150    2.7900    3.1172 C   0  0  0  0  0  0  0  0  0  0  0  0
    3.0163    1.9952    2.0742 C   0  0  0  0  0  0  0  0  0  0  0  0
    4.7845    2.1398   -0.5941 O   0  0  0  0  0  0  0  0  0  0  0  0
    5.8584    0.1099    2.1756 C   0  0  0  0  0  0  0  0  0  0  0  0
    4.2908   -1.5242    0.0053 O   0  0  0  0  0  0  0  0  0  0  0  0
    3.1240   -0.7844   -3.8595 C   0  0  0  0  0  0  0  0  0  0  0  0
    2.1939    0.4288   -3.6769 C   0  0  0  0  0  0  0  0  0  0  0  0
    1.6357    0.5398   -2.3335 C   0  0  0  0  0  0  0  0  0  0  0  0
    0.8964    1.7320   -2.0748 N   0  0  0  0  0  0  0  0  0  0  0  0
    0.9755    2.8296   -2.9919 C   0  0  0  0  0  0  0  0  0  0  0  0
    2.0537    2.7840   -4.0125 C   0  0  0  0  0  0  0  0  0  0  0  0
    2.9102    1.6252   -4.0477 O   0  0  0  0  0  0  0  0  0  0  0  0
    5.0550   -3.1861   -3.8774 O   0  0  0  0  0  0  0  0  0  0  0  0
    3.2444   -5.3626   -3.7561 C   0  0  0  0  0  0  0  0  0  0  0  0
    1.9748   -5.7793   -4.5199 C   0  0  0  0  0  0  0  0  0  0  0  0
    0.6814   -5.5352   -3.7310 C   0  0  0  0  0  0  0  0  0  0  0  0
   -1.6339   -4.3407   -2.4655 O   0  0  0  0  0  0  0  0  0  0  0  0
   -0.8512    0.7489    1.0026 C   0  0  0  0  0  0  0  0  0  0  0  0
   -1.6390    1.8618    1.2704 C   0  0  0  0  0  0  0  0  0  0  0  0
   -1.5895    2.9772    0.3814 C   0  0  0  0  0  0  0  0  0  0  0  0
   -0.7269    2.8973   -0.7060 C   0  0  0  0  0  0  0  0  0  0  0  0
    0.0586    1.7745   -0.9617 C   0  0  0  0  0  0  0  0  0  0  0  0
    0.0020    0.6764   -0.0892 C   0  0  0  0  0  0  0  0  0  0  0  0
    5.1489    2.8182    2.7375 F   0  0  0  0  0  0  0  0  0  0  0  0
  1  2  1  0  0  0  0
  2  3  1  0  0  0  0
  2  5  1  0  0  0  0
  3  4  1  0  0  0  0
  5  6  4  0  0  0  0
  5 10  4  0  0  0  0
  6  7  4  0  0  0  0
  7  8  4  0  0  0  0
  8  9  4  0  0  0  0
  9 10  4  0  0  0  0
 10 11  1  0  0  0  0
 11 12  4  0  0  0  0
 11 15  4  0  0  0  0
 12 13  1  0  0  0  0
 12 68  4  0  0  0  0
 13 14  1  0  0  0  0
 15 16  1  0  0  0  0
 15 67  4  0  0  0  0
 16 17  1  0  0  0  0
 17 18  1  0  0  0  0
 17 19  1  0  0  0  0
 17 20  1  0  0  0  0
 20 21  1  0  0  0  0
 21 22  1  0  0  0  0
 22 23  1  0  0  0  0
 22 66  2  0  0  0  0
 23 24  1  0  0  0  0
 23 65  1  0  0  0  0
 24 25  1  0  0  0  0
 25 26  1  0  0  0  0
 25 63  1  0  0  0  0
 26 27  1  0  0  0  0
 26 62  2  0  0  0  0
 27 28  1  0  0  0  0
 27 55  1  0  0  0  0
 28 29  1  0  0  0  0
 29 30  1  0  0  0  0
 29 54  2  0  0  0  0
 30 31  1  0  0  0  0
 30 34  1  0  0  0  0
 31 32  1  0  0  0  0
 31 33  1  0  0  0  0
 34 35  1  0  0  0  0
 34 53  1  0  0  0  0
 35 36  1  0  0  0  0
 35 52  2  0  0  0  0
 36 37  1  0  0  0  0
 36 51  1  0  0  0  0
 36 73  1  0  0  0  0
 37 38  1  0  0  0  0
 38 39  1  0  0  0  0
 39 40  1  0  0  0  0
 39 50  1  0  0  0  0
 40 41  1  0  0  0  0
 40 49  2  0  0  0  0
 41 42  1  0  0  0  0
 42 43  1  0  0  0  0
 43 44  1  0  0  0  0
 43 47  1  0  0  0  0
 43 48  1  0  0  0  0
 44 45  1  0  0  0  0
 44 46  1  0  0  0  0
 50 51  1  0  0  0  0
 55 56  1  0  0  0  0
 56 57  1  0  0  0  0
 56 61  1  0  0  0  0
 57 58  1  0  0  0  0
 58 59  1  0  0  0  0
 58 71  1  0  0  0  0
 59 60  1  0  0  0  0
 60 61  1  0  0  0  0
 63 64  1  0  0  0  0
 64 65  1  0  0  0  0
 67 68  4  0  0  0  0
 67 72  4  0  0  0  0
 68 69  4  0  0  0  0
 69 70  4  0  0  0  0
 70 71  4  0  0  0  0
 71 72  4  0  0  0  0
M  END
$$$$
