mol_ETKDG5_280
  PyMOL3.1          3D                             0

 73 79  0  0  0  0  0  0  0  0999 V2000
   -3.1079   -2.2457   -5.3168 C   0  0  0  0  0  0  0  0  0  0  0  0
   -2.6024   -3.5679   -4.9617 C   0  0  0  0  0  0  0  0  0  0  0  0
   -3.5825   -4.6131   -4.9141 O   0  0  0  0  0  0  0  0  0  0  0  0
   -4.5139   -4.5975   -3.8641 C   0  0  0  0  0  0  0  0  0  0  0  0
   -1.5042   -4.0130   -5.8528 C   0  0  0  0  0  0  0  0  0  0  0  0
   -1.8271   -4.5224   -7.0311 N   0  0  0  0  0  0  0  0  0  0  0  0
   -0.8861   -4.9965   -7.8725 C   0  0  0  0  0  0  0  0  0  0  0  0
    0.4735   -4.9385   -7.5531 C   0  0  0  0  0  0  0  0  0  0  0  0
    0.8372   -4.3962   -6.3111 C   0  0  0  0  0  0  0  0  0  0  0  0
   -0.1635   -3.8932   -5.4752 C   0  0  0  0  0  0  0  0  0  0  0  0
    0.2213   -3.2815   -4.2228 C   0  0  0  0  0  0  0  0  0  0  0  0
    0.2804   -3.9728   -3.0534 N   0  0  0  0  0  0  0  0  0  0  0  0
   -0.0313   -5.4322   -2.8212 C   0  0  0  0  0  0  0  0  0  0  0  0
    1.1676   -6.2691   -2.6850 C   0  0  0  0  0  0  0  0  0  0  0  0
    0.5031   -1.8987   -4.0126 C   0  0  0  0  0  0  0  0  0  0  0  0
    0.4723   -0.7087   -4.9518 C   0  0  0  0  0  0  0  0  0  0  0  0
    1.8277   -0.3984   -5.7414 C   0  0  0  0  0  0  0  0  0  0  0  0
    1.5644    0.7865   -6.6566 C   0  0  0  0  0  0  0  0  0  0  0  0
    2.2116   -1.4884   -6.6706 C   0  0  0  0  0  0  0  0  0  0  0  0
    2.9963   -0.1056   -4.8050 C   0  0  0  0  0  0  0  0  0  0  0  0
    3.1375    1.3032   -4.3211 O   0  0  0  0  0  0  0  0  0  0  0  0
    4.3511    2.0585   -4.3790 C   0  0  0  0  0  0  0  0  0  0  0  0
    4.3536    3.4582   -3.7761 C   0  0  0  0  0  0  0  0  0  0  0  0
    3.0125    3.9465   -3.7168 N   0  0  0  0  0  0  0  0  0  0  0  0
    2.8051    5.2365   -3.2476 N   0  0  0  0  0  0  0  0  0  0  0  0
    1.9455    5.4788   -2.2130 C   0  0  0  0  0  0  0  0  0  0  0  0
    1.2496    4.3150   -1.5763 C   0  0  0  0  0  0  0  0  0  0  0  0
   -0.1330    4.6174   -1.2458 N   0  0  0  0  0  0  0  0  0  0  0  0
   -1.1799    4.1452   -1.9593 C   0  0  0  0  0  0  0  0  0  0  0  0
   -2.5385    4.4394   -1.4026 C   0  0  0  0  0  0  0  0  0  0  0  0
   -3.2890    5.6064   -2.1175 C   0  0  0  0  0  0  0  0  0  0  0  0
   -4.4885    6.0744   -1.3615 C   0  0  0  0  0  0  0  0  0  0  0  0
   -2.3891    6.7176   -2.5459 C   0  0  0  0  0  0  0  0  0  0  0  0
   -3.2930    3.1814   -1.4546 N   0  0  0  0  0  0  0  0  0  0  0  0
   -3.1120    2.2648   -0.4444 C   0  0  0  0  0  0  0  0  0  0  0  0
   -3.7578    0.9004   -0.3867 C   0  0  0  0  0  0  0  0  0  0  0  0
   -3.6264    0.2403    0.9956 C   0  0  0  0  0  0  0  0  0  0  0  0
   -4.1162   -1.1714    0.9879 C   0  0  0  0  0  0  0  0  0  0  0  0
   -3.5252   -1.9343   -0.1315 N   0  0  0  0  0  0  0  0  0  0  0  0
   -2.9084   -3.1564   -0.0131 C   0  0  0  0  0  0  0  0  0  0  0  0
   -2.4472   -3.6874    1.1883 C   0  0  0  0  0  0  0  0  0  0  0  0
   -2.0265   -4.2932    2.1048 C   0  0  0  0  0  0  0  0  0  0  0  0
   -1.5488   -4.9207    3.2685 C   0  0  0  0  0  0  0  0  0  0  0  0
   -1.8066   -6.3177    3.2219 N   0  0  0  0  0  0  0  0  0  0  0  0
   -2.5905   -6.9847    4.1710 C   0  0  0  0  0  0  0  0  0  0  0  0
   -1.2904   -7.1108    2.1567 C   0  0  0  0  0  0  0  0  0  0  0  0
   -2.2067   -4.2580    4.4612 C   0  0  0  0  0  0  0  0  0  0  0  0
   -0.0429   -4.7114    3.4262 C   0  0  0  0  0  0  0  0  0  0  0  0
   -2.6956   -3.8208   -1.0464 O   0  0  0  0  0  0  0  0  0  0  0  0
   -3.6035   -1.3371   -1.4266 C   0  0  0  0  0  0  0  0  0  0  0  0
   -3.0278    0.0345   -1.4057 C   0  0  0  0  0  0  0  0  0  0  0  0
   -2.3265    2.5755    0.4727 O   0  0  0  0  0  0  0  0  0  0  0  0
   -4.1281    2.8929   -2.6431 C   0  0  0  0  0  0  0  0  0  0  0  0
   -1.0000    3.4151   -2.9260 O   0  0  0  0  0  0  0  0  0  0  0  0
    2.0315    3.8941   -0.2702 C   0  0  0  0  0  0  0  0  0  0  0  0
    1.4757    2.6532    0.4701 C   0  0  0  0  0  0  0  0  0  0  0  0
    1.8647    1.4570   -0.3213 C   0  0  0  0  0  0  0  0  0  0  0  0
    1.4912    0.2254    0.3244 N   0  0  0  0  0  0  0  0  0  0  0  0
    1.9348    0.0994    1.7231 C   0  0  0  0  0  0  0  0  0  0  0  0
    1.6497    1.3912    2.5113 C   0  0  0  0  0  0  0  0  0  0  0  0
    2.1028    2.5855    1.7846 O   0  0  0  0  0  0  0  0  0  0  0  0
    1.7695    6.6262   -1.7605 O   0  0  0  0  0  0  0  0  0  0  0  0
    3.5111    6.2952   -3.9658 C   0  0  0  0  0  0  0  0  0  0  0  0
    5.0027    5.9127   -4.0805 C   0  0  0  0  0  0  0  0  0  0  0  0
    5.2007    4.4814   -4.6001 C   0  0  0  0  0  0  0  0  0  0  0  0
    5.4133    1.6465   -4.8859 O   0  0  0  0  0  0  0  0  0  0  0  0
    0.7599   -1.8345   -2.6285 C   0  0  0  0  0  0  0  0  0  0  0  0
    0.6179   -3.1142   -2.0844 C   0  0  0  0  0  0  0  0  0  0  0  0
    0.8036   -3.3067   -0.6753 C   0  0  0  0  0  0  0  0  0  0  0  0
    1.0848   -2.1700    0.0959 C   0  0  0  0  0  0  0  0  0  0  0  0
    1.2114   -0.8956   -0.4704 C   0  0  0  0  0  0  0  0  0  0  0  0
    1.0443   -0.7210   -1.8532 C   0  0  0  0  0  0  0  0  0  0  0  0
   -5.1165    0.9759   -0.6817 F   0  0  0  0  0  0  0  0  0  0  0  0
  1  2  1  0  0  0  0
  2  3  1  0  0  0  0
  2  5  1  0  0  0  0
  3  4  1  0  0  0  0
  5  6  4  0  0  0  0
  5 10  4  0  0  0  0
  6  7  4  0  0  0  0
  7  8  4  0  0  0  0
  8  9  4  0  0  0  0
  9 10  4  0  0  0  0
 10 11  1  0  0  0  0
 11 12  4  0  0  0  0
 11 15  4  0  0  0  0
 12 13  1  0  0  0  0
 12 68  4  0  0  0  0
 13 14  1  0  0  0  0
 15 16  1  0  0  0  0
 15 67  4  0  0  0  0
 16 17  1  0  0  0  0
 17 18  1  0  0  0  0
 17 19  1  0  0  0  0
 17 20  1  0  0  0  0
 20 21  1  0  0  0  0
 21 22  1  0  0  0  0
 22 23  1  0  0  0  0
 22 66  2  0  0  0  0
 23 24  1  0  0  0  0
 23 65  1  0  0  0  0
 24 25  1  0  0  0  0
 25 26  1  0  0  0  0
 25 63  1  0  0  0  0
 26 27  1  0  0  0  0
 26 62  2  0  0  0  0
 27 28  1  0  0  0  0
 27 55  1  0  0  0  0
 28 29  1  0  0  0  0
 29 30  1  0  0  0  0
 29 54  2  0  0  0  0
 30 31  1  0  0  0  0
 30 34  1  0  0  0  0
 31 32  1  0  0  0  0
 31 33  1  0  0  0  0
 34 35  1  0  0  0  0
 34 53  1  0  0  0  0
 35 36  1  0  0  0  0
 35 52  2  0  0  0  0
 36 37  1  0  0  0  0
 36 51  1  0  0  0  0
 36 73  1  0  0  0  0
 37 38  1  0  0  0  0
 38 39  1  0  0  0  0
 39 40  1  0  0  0  0
 39 50  1  0  0  0  0
 40 41  1  0  0  0  0
 40 49  2  0  0  0  0
 41 42  1  0  0  0  0
 42 43  1  0  0  0  0
 43 44  1  0  0  0  0
 43 47  1  0  0  0  0
 43 48  1  0  0  0  0
 44 45  1  0  0  0  0
 44 46  1  0  0  0  0
 50 51  1  0  0  0  0
 55 56  1  0  0  0  0
 56 57  1  0  0  0  0
 56 61  1  0  0  0  0
 57 58  1  0  0  0  0
 58 59  1  0  0  0  0
 58 71  1  0  0  0  0
 59 60  1  0  0  0  0
 60 61  1  0  0  0  0
 63 64  1  0  0  0  0
 64 65  1  0  0  0  0
 67 68  4  0  0  0  0
 67 72  4  0  0  0  0
 68 69  4  0  0  0  0
 69 70  4  0  0  0  0
 70 71  4  0  0  0  0
 71 72  4  0  0  0  0
M  END
$$$$
