mol_ETKDG2_125
  PyMOL3.1          3D                             0

 73 79  0  0  0  0  0  0  0  0999 V2000
   -5.4408   -0.8414    2.4420 C   0  0  0  0  0  0  0  0  0  0  0  0
   -4.5032    0.1892    1.9167 C   0  0  0  0  0  0  0  0  0  0  0  0
   -4.2714    1.2745    2.8046 O   0  0  0  0  0  0  0  0  0  0  0  0
   -3.5264    0.9918    3.9724 C   0  0  0  0  0  0  0  0  0  0  0  0
   -4.9636    0.7573    0.6305 C   0  0  0  0  0  0  0  0  0  0  0  0
   -5.9229    1.6659    0.6682 N   0  0  0  0  0  0  0  0  0  0  0  0
   -6.4487    2.1819   -0.4638 C   0  0  0  0  0  0  0  0  0  0  0  0
   -6.0029    1.7755   -1.7306 C   0  0  0  0  0  0  0  0  0  0  0  0
   -4.9887    0.8058   -1.7937 C   0  0  0  0  0  0  0  0  0  0  0  0
   -4.4499    0.3135   -0.5958 C   0  0  0  0  0  0  0  0  0  0  0  0
   -3.3716   -0.6575   -0.6639 C   0  0  0  0  0  0  0  0  0  0  0  0
   -3.5754   -1.9902   -0.8382 N   0  0  0  0  0  0  0  0  0  0  0  0
   -4.8891   -2.7057   -0.9806 C   0  0  0  0  0  0  0  0  0  0  0  0
   -5.1506   -3.1308   -2.3631 C   0  0  0  0  0  0  0  0  0  0  0  0
   -1.9813   -0.3826   -0.4863 C   0  0  0  0  0  0  0  0  0  0  0  0
   -1.2715    0.9087   -0.1451 C   0  0  0  0  0  0  0  0  0  0  0  0
   -0.7211    1.7697   -1.3757 C   0  0  0  0  0  0  0  0  0  0  0  0
   -1.7866    2.1058   -2.3894 C   0  0  0  0  0  0  0  0  0  0  0  0
   -0.2426    3.0979   -0.8299 C   0  0  0  0  0  0  0  0  0  0  0  0
    0.4116    1.0344   -2.0826 C   0  0  0  0  0  0  0  0  0  0  0  0
    1.7513    1.0508   -1.3763 O   0  0  0  0  0  0  0  0  0  0  0  0
    2.9936    1.4262   -2.0050 C   0  0  0  0  0  0  0  0  0  0  0  0
    4.3003    1.3473   -1.2161 C   0  0  0  0  0  0  0  0  0  0  0  0
    4.0409    1.2251    0.1929 N   0  0  0  0  0  0  0  0  0  0  0  0
    5.1570    1.1623    1.0373 N   0  0  0  0  0  0  0  0  0  0  0  0
    5.3581    0.0991    1.8881 C   0  0  0  0  0  0  0  0  0  0  0  0
    4.3483   -1.0126    1.9069 C   0  0  0  0  0  0  0  0  0  0  0  0
    4.1563   -1.5668    3.2314 N   0  0  0  0  0  0  0  0  0  0  0  0
    3.1126   -1.2540    4.0031 C   0  0  0  0  0  0  0  0  0  0  0  0
    2.9526   -2.0234    5.2815 C   0  0  0  0  0  0  0  0  0  0  0  0
    3.5327   -1.3627    6.5572 C   0  0  0  0  0  0  0  0  0  0  0  0
    4.1233   -0.0261    6.4265 C   0  0  0  0  0  0  0  0  0  0  0  0
    4.2927   -2.3333    7.4235 C   0  0  0  0  0  0  0  0  0  0  0  0
    1.5227   -2.3183    5.4162 N   0  0  0  0  0  0  0  0  0  0  0  0
    1.0131   -3.3952    4.7310 C   0  0  0  0  0  0  0  0  0  0  0  0
   -0.4395   -3.8044    4.7237 C   0  0  0  0  0  0  0  0  0  0  0  0
   -1.1213   -3.0045    3.6274 C   0  0  0  0  0  0  0  0  0  0  0  0
   -2.5812   -3.3028    3.5809 C   0  0  0  0  0  0  0  0  0  0  0  0
   -2.7669   -4.7535    3.4309 N   0  0  0  0  0  0  0  0  0  0  0  0
   -3.5710   -5.2425    2.4433 C   0  0  0  0  0  0  0  0  0  0  0  0
   -3.4976   -6.5678    2.0405 C   0  0  0  0  0  0  0  0  0  0  0  0
   -3.5653   -7.6454    1.6267 C   0  0  0  0  0  0  0  0  0  0  0  0
   -3.5207   -8.9942    1.1995 C   0  0  0  0  0  0  0  0  0  0  0  0
   -4.7731   -9.3373    0.5764 N   0  0  0  0  0  0  0  0  0  0  0  0
   -5.8746   -9.7054    1.3831 C   0  0  0  0  0  0  0  0  0  0  0  0
   -5.0744   -8.7799   -0.7011 C   0  0  0  0  0  0  0  0  0  0  0  0
   -3.2235   -9.8785    2.3986 C   0  0  0  0  0  0  0  0  0  0  0  0
   -2.3898   -9.2083    0.2138 C   0  0  0  0  0  0  0  0  0  0  0  0
   -4.3594   -4.4919    1.8659 O   0  0  0  0  0  0  0  0  0  0  0  0
   -2.0720   -5.6145    4.3580 C   0  0  0  0  0  0  0  0  0  0  0  0
   -0.6358   -5.3051    4.4592 C   0  0  0  0  0  0  0  0  0  0  0  0
    1.8157   -4.0677    4.0477 O   0  0  0  0  0  0  0  0  0  0  0  0
    0.6676   -1.3827    6.1707 C   0  0  0  0  0  0  0  0  0  0  0  0
    2.2719   -0.4640    3.5931 O   0  0  0  0  0  0  0  0  0  0  0  0
    4.8002   -2.1706    0.9257 C   0  0  0  0  0  0  0  0  0  0  0  0
    3.7549   -3.3092    0.7314 C   0  0  0  0  0  0  0  0  0  0  0  0
    2.6290   -2.7394   -0.0718 C   0  0  0  0  0  0  0  0  0  0  0  0
    1.6566   -3.7385   -0.4556 N   0  0  0  0  0  0  0  0  0  0  0  0
    2.2065   -4.9366   -1.0921 C   0  0  0  0  0  0  0  0  0  0  0  0
    3.4534   -5.4484   -0.3285 C   0  0  0  0  0  0  0  0  0  0  0  0
    4.3989   -4.3634   -0.0377 O   0  0  0  0  0  0  0  0  0  0  0  0
    6.3712    0.0200    2.6075 O   0  0  0  0  0  0  0  0  0  0  0  0
    6.0432    2.3279    0.9853 C   0  0  0  0  0  0  0  0  0  0  0  0
    6.4307    2.5775   -0.4957 C   0  0  0  0  0  0  0  0  0  0  0  0
    5.1993    2.6091   -1.4277 C   0  0  0  0  0  0  0  0  0  0  0  0
    3.0792    1.8108   -3.1828 O   0  0  0  0  0  0  0  0  0  0  0  0
   -1.3728   -1.6580   -0.6102 C   0  0  0  0  0  0  0  0  0  0  0  0
   -2.3772   -2.6043   -0.8188 C   0  0  0  0  0  0  0  0  0  0  0  0
   -2.0277   -3.9957   -0.9297 C   0  0  0  0  0  0  0  0  0  0  0  0
   -0.6757   -4.3318   -0.8008 C   0  0  0  0  0  0  0  0  0  0  0  0
    0.3139   -3.3653   -0.5970 C   0  0  0  0  0  0  0  0  0  0  0  0
   -0.0331   -2.0070   -0.4987 C   0  0  0  0  0  0  0  0  0  0  0  0
   -1.0335   -3.5880    5.9455 F   0  0  0  0  0  0  0  0  0  0  0  0
  1  2  1  0  0  0  0
  2  3  1  0  0  0  0
  2  5  1  0  0  0  0
  3  4  1  0  0  0  0
  5  6  4  0  0  0  0
  5 10  4  0  0  0  0
  6  7  4  0  0  0  0
  7  8  4  0  0  0  0
  8  9  4  0  0  0  0
  9 10  4  0  0  0  0
 10 11  1  0  0  0  0
 11 12  4  0  0  0  0
 11 15  4  0  0  0  0
 12 13  1  0  0  0  0
 12 68  4  0  0  0  0
 13 14  1  0  0  0  0
 15 16  1  0  0  0  0
 15 67  4  0  0  0  0
 16 17  1  0  0  0  0
 17 18  1  0  0  0  0
 17 19  1  0  0  0  0
 17 20  1  0  0  0  0
 20 21  1  0  0  0  0
 21 22  1  0  0  0  0
 22 23  1  0  0  0  0
 22 66  2  0  0  0  0
 23 24  1  0  0  0  0
 23 65  1  0  0  0  0
 24 25  1  0  0  0  0
 25 26  1  0  0  0  0
 25 63  1  0  0  0  0
 26 27  1  0  0  0  0
 26 62  2  0  0  0  0
 27 28  1  0  0  0  0
 27 55  1  0  0  0  0
 28 29  1  0  0  0  0
 29 30  1  0  0  0  0
 29 54  2  0  0  0  0
 30 31  1  0  0  0  0
 30 34  1  0  0  0  0
 31 32  1  0  0  0  0
 31 33  1  0  0  0  0
 34 35  1  0  0  0  0
 34 53  1  0  0  0  0
 35 36  1  0  0  0  0
 35 52  2  0  0  0  0
 36 37  1  0  0  0  0
 36 51  1  0  0  0  0
 36 73  1  0  0  0  0
 37 38  1  0  0  0  0
 38 39  1  0  0  0  0
 39 40  1  0  0  0  0
 39 50  1  0  0  0  0
 40 41  1  0  0  0  0
 40 49  2  0  0  0  0
 41 42  1  0  0  0  0
 42 43  1  0  0  0  0
 43 44  1  0  0  0  0
 43 47  1  0  0  0  0
 43 48  1  0  0  0  0
 44 45  1  0  0  0  0
 44 46  1  0  0  0  0
 50 51  1  0  0  0  0
 55 56  1  0  0  0  0
 56 57  1  0  0  0  0
 56 61  1  0  0  0  0
 57 58  1  0  0  0  0
 58 59  1  0  0  0  0
 58 71  1  0  0  0  0
 59 60  1  0  0  0  0
 60 61  1  0  0  0  0
 63 64  1  0  0  0  0
 64 65  1  0  0  0  0
 67 68  4  0  0  0  0
 67 72  4  0  0  0  0
 68 69  4  0  0  0  0
 69 70  4  0  0  0  0
 70 71  4  0  0  0  0
 71 72  4  0  0  0  0
M  END
$$$$
