mol_ETKDG2_111
  PyMOL3.1          3D                             0

 73 79  0  0  0  0  0  0  0  0999 V2000
   -2.4696    2.8536   -5.2108 C   0  0  0  0  0  0  0  0  0  0  0  0
   -1.1963    3.0580   -4.4817 C   0  0  0  0  0  0  0  0  0  0  0  0
   -0.0288    2.8231   -5.2581 O   0  0  0  0  0  0  0  0  0  0  0  0
    0.3752    1.4975   -5.4395 C   0  0  0  0  0  0  0  0  0  0  0  0
   -1.0613    4.4146   -3.9223 C   0  0  0  0  0  0  0  0  0  0  0  0
   -0.6851    5.3811   -4.7394 N   0  0  0  0  0  0  0  0  0  0  0  0
   -0.5678    6.6566   -4.3146 C   0  0  0  0  0  0  0  0  0  0  0  0
   -0.8509    7.0220   -2.9987 C   0  0  0  0  0  0  0  0  0  0  0  0
   -1.2624    6.0205   -2.1158 C   0  0  0  0  0  0  0  0  0  0  0  0
   -1.3486    4.7036   -2.5880 C   0  0  0  0  0  0  0  0  0  0  0  0
   -1.7315    3.6850   -1.6415 C   0  0  0  0  0  0  0  0  0  0  0  0
   -3.0119    3.4908   -1.2315 N   0  0  0  0  0  0  0  0  0  0  0  0
   -4.2501    4.2421   -1.6613 C   0  0  0  0  0  0  0  0  0  0  0  0
   -5.0647    3.4960   -2.6656 C   0  0  0  0  0  0  0  0  0  0  0  0
   -0.8687    2.7396   -1.0353 C   0  0  0  0  0  0  0  0  0  0  0  0
    0.5939    2.4733   -1.2229 C   0  0  0  0  0  0  0  0  0  0  0  0
    1.5843    3.3679   -0.3816 C   0  0  0  0  0  0  0  0  0  0  0  0
    1.6733    4.7901   -0.8789 C   0  0  0  0  0  0  0  0  0  0  0  0
    2.9608    2.8170   -0.5825 C   0  0  0  0  0  0  0  0  0  0  0  0
    1.2518    3.3855    1.0715 C   0  0  0  0  0  0  0  0  0  0  0  0
    1.9424    2.3646    1.9299 O   0  0  0  0  0  0  0  0  0  0  0  0
    2.2220    2.5436    3.3073 C   0  0  0  0  0  0  0  0  0  0  0  0
    2.9106    1.4370    4.0538 C   0  0  0  0  0  0  0  0  0  0  0  0
    3.2329    0.3367    3.1875 N   0  0  0  0  0  0  0  0  0  0  0  0
    3.8905   -0.7433    3.7648 N   0  0  0  0  0  0  0  0  0  0  0  0
    3.3861   -2.0115    3.6602 C   0  0  0  0  0  0  0  0  0  0  0  0
    2.1226   -2.2445    2.8616 C   0  0  0  0  0  0  0  0  0  0  0  0
    2.1541   -3.5426    2.2191 N   0  0  0  0  0  0  0  0  0  0  0  0
    2.3718   -3.7405    0.9122 C   0  0  0  0  0  0  0  0  0  0  0  0
    2.2679   -5.1569    0.4554 C   0  0  0  0  0  0  0  0  0  0  0  0
    3.6398   -5.8645    0.2065 C   0  0  0  0  0  0  0  0  0  0  0  0
    3.4911   -7.3461    0.0617 C   0  0  0  0  0  0  0  0  0  0  0  0
    4.6791   -5.4957    1.2114 C   0  0  0  0  0  0  0  0  0  0  0  0
    1.4140   -5.2132   -0.7186 N   0  0  0  0  0  0  0  0  0  0  0  0
    0.0627   -5.2974   -0.5453 C   0  0  0  0  0  0  0  0  0  0  0  0
   -0.9312   -5.4404   -1.6640 C   0  0  0  0  0  0  0  0  0  0  0  0
   -1.0015   -4.1670   -2.4533 C   0  0  0  0  0  0  0  0  0  0  0  0
   -1.9155   -4.3162   -3.6099 C   0  0  0  0  0  0  0  0  0  0  0  0
   -3.2332   -4.7267   -3.1306 N   0  0  0  0  0  0  0  0  0  0  0  0
   -4.3376   -4.0539   -3.5432 C   0  0  0  0  0  0  0  0  0  0  0  0
   -5.5601   -4.2494   -2.9382 C   0  0  0  0  0  0  0  0  0  0  0  0
   -6.6442   -4.3737   -2.5820 C   0  0  0  0  0  0  0  0  0  0  0  0
   -7.8943   -4.6574   -2.0062 C   0  0  0  0  0  0  0  0  0  0  0  0
   -8.8401   -4.9708   -3.0260 N   0  0  0  0  0  0  0  0  0  0  0  0
   -8.5103   -5.9118   -4.0232 C   0  0  0  0  0  0  0  0  0  0  0  0
  -10.0964   -4.3631   -3.1339 C   0  0  0  0  0  0  0  0  0  0  0  0
   -7.7581   -5.8450   -1.0453 C   0  0  0  0  0  0  0  0  0  0  0  0
   -8.3583   -3.4866   -1.1883 C   0  0  0  0  0  0  0  0  0  0  0  0
   -4.2513   -3.2367   -4.4510 O   0  0  0  0  0  0  0  0  0  0  0  0
   -3.2943   -5.8443   -2.2355 C   0  0  0  0  0  0  0  0  0  0  0  0
   -2.3434   -5.7661   -1.1446 C   0  0  0  0  0  0  0  0  0  0  0  0
   -0.3664   -5.2762    0.6241 O   0  0  0  0  0  0  0  0  0  0  0  0
    2.0289   -5.0833   -2.0477 C   0  0  0  0  0  0  0  0  0  0  0  0
    2.5256   -2.8031    0.1554 O   0  0  0  0  0  0  0  0  0  0  0  0
    0.8800   -2.2136    3.8315 C   0  0  0  0  0  0  0  0  0  0  0  0
   -0.4899   -2.3075    3.1181 C   0  0  0  0  0  0  0  0  0  0  0  0
   -0.8497   -0.9339    2.6910 C   0  0  0  0  0  0  0  0  0  0  0  0
   -2.1623   -0.8666    2.1022 N   0  0  0  0  0  0  0  0  0  0  0  0
   -3.2253   -1.4850    2.9187 C   0  0  0  0  0  0  0  0  0  0  0  0
   -2.7975   -2.8622    3.4303 C   0  0  0  0  0  0  0  0  0  0  0  0
   -1.4680   -2.8045    4.0597 O   0  0  0  0  0  0  0  0  0  0  0  0
    3.9205   -2.9663    4.2461 O   0  0  0  0  0  0  0  0  0  0  0  0
    5.1582   -0.4362    4.4288 C   0  0  0  0  0  0  0  0  0  0  0  0
    4.9589    0.7494    5.3974 C   0  0  0  0  0  0  0  0  0  0  0  0
    4.2044    1.9113    4.7604 C   0  0  0  0  0  0  0  0  0  0  0  0
    1.9473    3.5629    3.9730 O   0  0  0  0  0  0  0  0  0  0  0  0
   -1.7249    1.9773   -0.2174 C   0  0  0  0  0  0  0  0  0  0  0  0
   -3.0218    2.4505   -0.3831 C   0  0  0  0  0  0  0  0  0  0  0  0
   -4.0966    1.8009    0.3210 C   0  0  0  0  0  0  0  0  0  0  0  0
   -3.7724    0.7095    1.1409 C   0  0  0  0  0  0  0  0  0  0  0  0
   -2.4582    0.2470    1.2906 C   0  0  0  0  0  0  0  0  0  0  0  0
   -1.4128    0.8936    0.6043 C   0  0  0  0  0  0  0  0  0  0  0  0
   -0.5767   -6.5051   -2.4755 F   0  0  0  0  0  0  0  0  0  0  0  0
  1  2  1  0  0  0  0
  2  3  1  0  0  0  0
  2  5  1  0  0  0  0
  3  4  1  0  0  0  0
  5  6  4  0  0  0  0
  5 10  4  0  0  0  0
  6  7  4  0  0  0  0
  7  8  4  0  0  0  0
  8  9  4  0  0  0  0
  9 10  4  0  0  0  0
 10 11  1  0  0  0  0
 11 12  4  0  0  0  0
 11 15  4  0  0  0  0
 12 13  1  0  0  0  0
 12 68  4  0  0  0  0
 13 14  1  0  0  0  0
 15 16  1  0  0  0  0
 15 67  4  0  0  0  0
 16 17  1  0  0  0  0
 17 18  1  0  0  0  0
 17 19  1  0  0  0  0
 17 20  1  0  0  0  0
 20 21  1  0  0  0  0
 21 22  1  0  0  0  0
 22 23  1  0  0  0  0
 22 66  2  0  0  0  0
 23 24  1  0  0  0  0
 23 65  1  0  0  0  0
 24 25  1  0  0  0  0
 25 26  1  0  0  0  0
 25 63  1  0  0  0  0
 26 27  1  0  0  0  0
 26 62  2  0  0  0  0
 27 28  1  0  0  0  0
 27 55  1  0  0  0  0
 28 29  1  0  0  0  0
 29 30  1  0  0  0  0
 29 54  2  0  0  0  0
 30 31  1  0  0  0  0
 30 34  1  0  0  0  0
 31 32  1  0  0  0  0
 31 33  1  0  0  0  0
 34 35  1  0  0  0  0
 34 53  1  0  0  0  0
 35 36  1  0  0  0  0
 35 52  2  0  0  0  0
 36 37  1  0  0  0  0
 36 51  1  0  0  0  0
 36 73  1  0  0  0  0
 37 38  1  0  0  0  0
 38 39  1  0  0  0  0
 39 40  1  0  0  0  0
 39 50  1  0  0  0  0
 40 41  1  0  0  0  0
 40 49  2  0  0  0  0
 41 42  1  0  0  0  0
 42 43  1  0  0  0  0
 43 44  1  0  0  0  0
 43 47  1  0  0  0  0
 43 48  1  0  0  0  0
 44 45  1  0  0  0  0
 44 46  1  0  0  0  0
 50 51  1  0  0  0  0
 55 56  1  0  0  0  0
 56 57  1  0  0  0  0
 56 61  1  0  0  0  0
 57 58  1  0  0  0  0
 58 59  1  0  0  0  0
 58 71  1  0  0  0  0
 59 60  1  0  0  0  0
 60 61  1  0  0  0  0
 63 64  1  0  0  0  0
 64 65  1  0  0  0  0
 67 68  4  0  0  0  0
 67 72  4  0  0  0  0
 68 69  4  0  0  0  0
 69 70  4  0  0  0  0
 70 71  4  0  0  0  0
 71 72  4  0  0  0  0
M  END
$$$$
