mol_bioactive_39
  PyMOL3.1          3D                             0

 73 79  0  0  0  0  0  0  0  0999 V2000
    1.1043   -4.2063   -3.0274 C   0  0  0  0  0  0  0  0  0  0  0  0
    2.1451   -4.4371   -2.0130 C   0  0  0  0  0  0  0  0  0  0  0  0
    1.8077   -4.0392   -0.6987 O   0  0  0  0  0  0  0  0  0  0  0  0
    0.6575   -4.6512   -0.1269 C   0  0  0  0  0  0  0  0  0  0  0  0
    3.4723   -3.8850   -2.2922 C   0  0  0  0  0  0  0  0  0  0  0  0
    4.2884   -4.9240   -2.3315 N   0  0  0  0  0  0  0  0  0  0  0  0
    5.5640   -4.8025   -2.6533 C   0  0  0  0  0  0  0  0  0  0  0  0
    6.1103   -3.5837   -2.9920 C   0  0  0  0  0  0  0  0  0  0  0  0
    5.2862   -2.4521   -2.9732 C   0  0  0  0  0  0  0  0  0  0  0  0
    3.9571   -2.5943   -2.5888 C   0  0  0  0  0  0  0  0  0  0  0  0
    3.1450   -1.3911   -2.5147 C   0  0  0  0  0  0  0  0  0  0  0  0
    2.5089   -0.8524   -3.5854 N   0  0  0  0  0  0  0  0  0  0  0  0
    2.4530   -1.3961   -4.9823 C   0  0  0  0  0  0  0  0  0  0  0  0
    3.2390   -0.6555   -5.9554 C   0  0  0  0  0  0  0  0  0  0  0  0
    2.8710   -0.6292   -1.3384 C   0  0  0  0  0  0  0  0  0  0  0  0
    3.2122   -0.8849    0.1052 C   0  0  0  0  0  0  0  0  0  0  0  0
    4.5651   -0.2916    0.6765 C   0  0  0  0  0  0  0  0  0  0  0  0
    5.7758   -0.7139   -0.1065 C   0  0  0  0  0  0  0  0  0  0  0  0
    4.7648   -0.8543    2.0594 C   0  0  0  0  0  0  0  0  0  0  0  0
    4.5153    1.2266    0.7337 C   0  0  0  0  0  0  0  0  0  0  0  0
    3.7670    1.8062    1.9101 O   0  0  0  0  0  0  0  0  0  0  0  0
    4.2578    2.8730    2.7334 C   0  0  0  0  0  0  0  0  0  0  0  0
    3.3712    3.3953    3.8571 C   0  0  0  0  0  0  0  0  0  0  0  0
    2.2182    2.5661    4.0209 N   0  0  0  0  0  0  0  0  0  0  0  0
    1.3154    2.8848    5.0257 N   0  0  0  0  0  0  0  0  0  0  0  0
   -0.0100    3.0532    4.7383 C   0  0  0  0  0  0  0  0  0  0  0  0
   -0.4820    2.9031    3.3128 C   0  0  0  0  0  0  0  0  0  0  0  0
   -1.8195    2.3092    3.2569 N   0  0  0  0  0  0  0  0  0  0  0  0
   -2.0910    0.9931    3.1494 C   0  0  0  0  0  0  0  0  0  0  0  0
   -3.5353    0.6156    2.9966 C   0  0  0  0  0  0  0  0  0  0  0  0
   -4.1986    0.0383    4.2804 C   0  0  0  0  0  0  0  0  0  0  0  0
   -5.6896    0.0084    4.2077 C   0  0  0  0  0  0  0  0  0  0  0  0
   -3.6897    0.6355    5.5472 C   0  0  0  0  0  0  0  0  0  0  0  0
   -3.6327   -0.2960    1.8529 N   0  0  0  0  0  0  0  0  0  0  0  0
   -3.6766    0.2350    0.5817 C   0  0  0  0  0  0  0  0  0  0  0  0
   -3.7218   -0.5827   -0.6926 C   0  0  0  0  0  0  0  0  0  0  0  0
   -2.3237   -1.1005   -0.9460 C   0  0  0  0  0  0  0  0  0  0  0  0
   -2.2686   -1.9423   -2.1798 C   0  0  0  0  0  0  0  0  0  0  0  0
   -2.7650   -1.1564   -3.3159 N   0  0  0  0  0  0  0  0  0  0  0  0
   -1.9897   -0.9914   -4.4412 C   0  0  0  0  0  0  0  0  0  0  0  0
   -2.2140    0.0425   -5.3428 C   0  0  0  0  0  0  0  0  0  0  0  0
   -2.2752    0.8620   -6.1693 C   0  0  0  0  0  0  0  0  0  0  0  0
   -2.4595    1.9702   -7.0455 C   0  0  0  0  0  0  0  0  0  0  0  0
   -1.3230    2.1380   -7.8915 N   0  0  0  0  0  0  0  0  0  0  0  0
   -0.1091    2.5811   -7.3493 C   0  0  0  0  0  0  0  0  0  0  0  0
   -1.2750    1.5814   -9.1869 C   0  0  0  0  0  0  0  0  0  0  0  0
   -2.6881    3.2299   -6.2248 C   0  0  0  0  0  0  0  0  0  0  0  0
   -3.7093    1.7521   -7.8683 C   0  0  0  0  0  0  0  0  0  0  0  0
   -1.0422   -1.7343   -4.6477 O   0  0  0  0  0  0  0  0  0  0  0  0
   -4.0644   -0.5642   -3.1583 C   0  0  0  0  0  0  0  0  0  0  0  0
   -4.1748    0.2300   -1.9148 C   0  0  0  0  0  0  0  0  0  0  0  0
   -3.6527    1.4737    0.4838 O   0  0  0  0  0  0  0  0  0  0  0  0
   -3.5663   -1.7460    2.0929 C   0  0  0  0  0  0  0  0  0  0  0  0
   -1.1858    0.1863    3.0676 O   0  0  0  0  0  0  0  0  0  0  0  0
   -0.5090    4.3320    2.6242 C   0  0  0  0  0  0  0  0  0  0  0  0
   -0.2765    4.5648    1.0878 C   0  0  0  0  0  0  0  0  0  0  0  0
    0.0141    3.3274    0.3715 C   0  0  0  0  0  0  0  0  0  0  0  0
    0.0675    3.4234   -1.0611 N   0  0  0  0  0  0  0  0  0  0  0  0
   -0.5257    4.5423   -1.7212 C   0  0  0  0  0  0  0  0  0  0  0  0
   -1.2492    5.5315   -0.8780 C   0  0  0  0  0  0  0  0  0  0  0  0
   -1.4556    5.2100    0.5257 O   0  0  0  0  0  0  0  0  0  0  0  0
   -0.8205    3.3760    5.6177 O   0  0  0  0  0  0  0  0  0  0  0  0
    1.8751    2.9702    6.3706 C   0  0  0  0  0  0  0  0  0  0  0  0
    3.1440    3.8509    6.3581 C   0  0  0  0  0  0  0  0  0  0  0  0
    4.1055    3.4911    5.2241 C   0  0  0  0  0  0  0  0  0  0  0  0
    5.3637    3.4108    2.5893 O   0  0  0  0  0  0  0  0  0  0  0  0
    2.0608    0.4252   -1.8056 C   0  0  0  0  0  0  0  0  0  0  0  0
    1.8652    0.2550   -3.1771 C   0  0  0  0  0  0  0  0  0  0  0  0
    1.0369    1.1834   -3.8783 C   0  0  0  0  0  0  0  0  0  0  0  0
    0.4473    2.2153   -3.1437 C   0  0  0  0  0  0  0  0  0  0  0  0
    0.6656    2.3786   -1.7734 C   0  0  0  0  0  0  0  0  0  0  0  0
    1.4811    1.4634   -1.0889 C   0  0  0  0  0  0  0  0  0  0  0  0
   -4.6414   -1.6123   -0.5763 F   0  0  0  0  0  0  0  0  0  0  0  0
  1  2  1  0  0  0  0
  2  3  1  0  0  0  0
  2  5  1  0  0  0  0
  3  4  1  0  0  0  0
  5  6  4  0  0  0  0
  5 10  4  0  0  0  0
  6  7  4  0  0  0  0
  7  8  4  0  0  0  0
  8  9  4  0  0  0  0
  9 10  4  0  0  0  0
 10 11  1  0  0  0  0
 11 12  4  0  0  0  0
 11 15  4  0  0  0  0
 12 13  1  0  0  0  0
 12 68  4  0  0  0  0
 13 14  1  0  0  0  0
 15 16  1  0  0  0  0
 15 67  4  0  0  0  0
 16 17  1  0  0  0  0
 17 18  1  0  0  0  0
 17 19  1  0  0  0  0
 17 20  1  0  0  0  0
 20 21  1  0  0  0  0
 21 22  1  0  0  0  0
 22 23  1  0  0  0  0
 22 66  2  0  0  0  0
 23 24  1  0  0  0  0
 23 65  1  0  0  0  0
 24 25  1  0  0  0  0
 25 26  1  0  0  0  0
 25 63  1  0  0  0  0
 26 27  1  0  0  0  0
 26 62  2  0  0  0  0
 27 28  1  0  0  0  0
 27 55  1  0  0  0  0
 28 29  1  0  0  0  0
 29 30  1  0  0  0  0
 29 54  2  0  0  0  0
 30 31  1  0  0  0  0
 30 34  1  0  0  0  0
 31 32  1  0  0  0  0
 31 33  1  0  0  0  0
 34 35  1  0  0  0  0
 34 53  1  0  0  0  0
 35 36  1  0  0  0  0
 35 52  2  0  0  0  0
 36 37  1  0  0  0  0
 36 51  1  0  0  0  0
 36 73  1  0  0  0  0
 37 38  1  0  0  0  0
 38 39  1  0  0  0  0
 39 40  1  0  0  0  0
 39 50  1  0  0  0  0
 40 41  1  0  0  0  0
 40 49  2  0  0  0  0
 41 42  1  0  0  0  0
 42 43  1  0  0  0  0
 43 44  1  0  0  0  0
 43 47  1  0  0  0  0
 43 48  1  0  0  0  0
 44 45  1  0  0  0  0
 44 46  1  0  0  0  0
 50 51  1  0  0  0  0
 55 56  1  0  0  0  0
 56 57  1  0  0  0  0
 56 61  1  0  0  0  0
 57 58  1  0  0  0  0
 58 59  1  0  0  0  0
 58 71  1  0  0  0  0
 59 60  1  0  0  0  0
 60 61  1  0  0  0  0
 63 64  1  0  0  0  0
 64 65  1  0  0  0  0
 67 68  4  0  0  0  0
 67 72  4  0  0  0  0
 68 69  4  0  0  0  0
 69 70  4  0  0  0  0
 70 71  4  0  0  0  0
 71 72  4  0  0  0  0
M  END
$$$$
