mol_ETKDG4_225
  PyMOL3.1          3D                             0

 73 79  0  0  0  0  0  0  0  0999 V2000
    3.2965   -2.4548    3.8572 C   0  0  0  0  0  0  0  0  0  0  0  0
    2.2785   -2.0246    4.8205 C   0  0  0  0  0  0  0  0  0  0  0  0
    2.2631   -2.8713    5.9862 O   0  0  0  0  0  0  0  0  0  0  0  0
    1.6100   -4.0892    5.8972 C   0  0  0  0  0  0  0  0  0  0  0  0
    2.4824   -0.6400    5.3016 C   0  0  0  0  0  0  0  0  0  0  0  0
    3.2721   -0.4931    6.3457 N   0  0  0  0  0  0  0  0  0  0  0  0
    3.4816    0.7089    6.9016 C   0  0  0  0  0  0  0  0  0  0  0  0
    2.9085    1.8655    6.3773 C   0  0  0  0  0  0  0  0  0  0  0  0
    2.0866    1.7443    5.2611 C   0  0  0  0  0  0  0  0  0  0  0  0
    1.8948    0.4838    4.7018 C   0  0  0  0  0  0  0  0  0  0  0  0
    1.0643    0.4112    3.5252 C   0  0  0  0  0  0  0  0  0  0  0  0
   -0.2817    0.4209    3.5903 N   0  0  0  0  0  0  0  0  0  0  0  0
   -1.1457    0.4570    4.8225 C   0  0  0  0  0  0  0  0  0  0  0  0
   -1.7150    1.7916    5.0654 C   0  0  0  0  0  0  0  0  0  0  0  0
    1.5009    0.2954    2.1724 C   0  0  0  0  0  0  0  0  0  0  0  0
    2.8649    0.1414    1.5534 C   0  0  0  0  0  0  0  0  0  0  0  0
    3.6611    1.4824    1.2390 C   0  0  0  0  0  0  0  0  0  0  0  0
    4.9220    1.0820    0.4991 C   0  0  0  0  0  0  0  0  0  0  0  0
    4.1391    2.1172    2.4977 C   0  0  0  0  0  0  0  0  0  0  0  0
    2.8926    2.5107    0.4014 C   0  0  0  0  0  0  0  0  0  0  0  0
    2.9789    2.3676   -1.0935 O   0  0  0  0  0  0  0  0  0  0  0  0
    3.0779    3.4543   -2.0230 C   0  0  0  0  0  0  0  0  0  0  0  0
    3.1371    3.1278   -3.5193 C   0  0  0  0  0  0  0  0  0  0  0  0
    3.5803    1.7796   -3.6949 N   0  0  0  0  0  0  0  0  0  0  0  0
    3.7487    1.2957   -4.9876 N   0  0  0  0  0  0  0  0  0  0  0  0
    3.1126    0.1616   -5.4045 C   0  0  0  0  0  0  0  0  0  0  0  0
    2.1283   -0.4728   -4.4803 C   0  0  0  0  0  0  0  0  0  0  0  0
    2.1468   -1.9212   -4.5324 N   0  0  0  0  0  0  0  0  0  0  0  0
    2.6489   -2.6917   -3.5456 C   0  0  0  0  0  0  0  0  0  0  0  0
    2.4133   -4.1590   -3.6759 C   0  0  0  0  0  0  0  0  0  0  0  0
    3.6181   -4.9578   -4.2470 C   0  0  0  0  0  0  0  0  0  0  0  0
    3.2674   -6.3595   -4.6064 C   0  0  0  0  0  0  0  0  0  0  0  0
    4.3619   -4.2410   -5.3131 C   0  0  0  0  0  0  0  0  0  0  0  0
    2.0104   -4.6463   -2.3511 N   0  0  0  0  0  0  0  0  0  0  0  0
    0.7128   -4.4484   -1.9324 C   0  0  0  0  0  0  0  0  0  0  0  0
    0.1717   -4.8704   -0.5878 C   0  0  0  0  0  0  0  0  0  0  0  0
   -1.3450   -4.6645   -0.4606 C   0  0  0  0  0  0  0  0  0  0  0  0
   -1.8205   -4.9893    0.9181 C   0  0  0  0  0  0  0  0  0  0  0  0
   -1.0244   -4.2562    1.9165 N   0  0  0  0  0  0  0  0  0  0  0  0
   -1.5653   -3.4580    2.8821 C   0  0  0  0  0  0  0  0  0  0  0  0
   -2.8869   -3.1157    2.8526 C   0  0  0  0  0  0  0  0  0  0  0  0
   -3.9957   -2.8358    2.9376 C   0  0  0  0  0  0  0  0  0  0  0  0
   -5.3687   -2.5666    2.8430 C   0  0  0  0  0  0  0  0  0  0  0  0
   -6.1708   -3.5192    3.5276 N   0  0  0  0  0  0  0  0  0  0  0  0
   -7.5547   -3.3515    3.6332 C   0  0  0  0  0  0  0  0  0  0  0  0
   -5.6143   -4.5967    4.2357 C   0  0  0  0  0  0  0  0  0  0  0  0
   -5.7456   -2.5815    1.3614 C   0  0  0  0  0  0  0  0  0  0  0  0
   -5.6486   -1.1901    3.3941 C   0  0  0  0  0  0  0  0  0  0  0  0
   -0.8506   -2.9800    3.7807 O   0  0  0  0  0  0  0  0  0  0  0  0
    0.3937   -4.3859    1.8293 C   0  0  0  0  0  0  0  0  0  0  0  0
    0.8444   -4.0032    0.4605 C   0  0  0  0  0  0  0  0  0  0  0  0
   -0.0601   -3.8766   -2.7233 O   0  0  0  0  0  0  0  0  0  0  0  0
    3.0361   -5.2319   -1.4651 C   0  0  0  0  0  0  0  0  0  0  0  0
    3.1606   -2.1893   -2.5567 O   0  0  0  0  0  0  0  0  0  0  0  0
    0.6801    0.0360   -4.8585 C   0  0  0  0  0  0  0  0  0  0  0  0
   -0.4326   -0.4919   -3.9258 C   0  0  0  0  0  0  0  0  0  0  0  0
   -0.3661    0.3155   -2.6844 C   0  0  0  0  0  0  0  0  0  0  0  0
   -1.4142   -0.0370   -1.7718 N   0  0  0  0  0  0  0  0  0  0  0  0
   -2.7691   -0.0341   -2.3444 C   0  0  0  0  0  0  0  0  0  0  0  0
   -2.7969   -0.7465   -3.7016 C   0  0  0  0  0  0  0  0  0  0  0  0
   -1.7154   -0.2765   -4.5749 O   0  0  0  0  0  0  0  0  0  0  0  0
    3.2759   -0.3128   -6.5388 O   0  0  0  0  0  0  0  0  0  0  0  0
    4.6893    2.0401   -5.8203 C   0  0  0  0  0  0  0  0  0  0  0  0
    4.3146    3.5409   -5.7587 C   0  0  0  0  0  0  0  0  0  0  0  0
    4.1100    4.0500   -4.3232 C   0  0  0  0  0  0  0  0  0  0  0  0
    3.1080    4.6422   -1.6820 O   0  0  0  0  0  0  0  0  0  0  0  0
    0.3077    0.2674    1.4447 C   0  0  0  0  0  0  0  0  0  0  0  0
   -0.7520    0.3513    2.3443 C   0  0  0  0  0  0  0  0  0  0  0  0
   -2.0902    0.3320    1.8487 C   0  0  0  0  0  0  0  0  0  0  0  0
   -2.2608    0.1980    0.4734 C   0  0  0  0  0  0  0  0  0  0  0  0
   -1.1895    0.1016   -0.4071 C   0  0  0  0  0  0  0  0  0  0  0  0
    0.1262    0.1273    0.0795 C   0  0  0  0  0  0  0  0  0  0  0  0
    0.4360   -6.2169   -0.3710 F   0  0  0  0  0  0  0  0  0  0  0  0
  1  2  1  0  0  0  0
  2  3  1  0  0  0  0
  2  5  1  0  0  0  0
  3  4  1  0  0  0  0
  5  6  4  0  0  0  0
  5 10  4  0  0  0  0
  6  7  4  0  0  0  0
  7  8  4  0  0  0  0
  8  9  4  0  0  0  0
  9 10  4  0  0  0  0
 10 11  1  0  0  0  0
 11 12  4  0  0  0  0
 11 15  4  0  0  0  0
 12 13  1  0  0  0  0
 12 68  4  0  0  0  0
 13 14  1  0  0  0  0
 15 16  1  0  0  0  0
 15 67  4  0  0  0  0
 16 17  1  0  0  0  0
 17 18  1  0  0  0  0
 17 19  1  0  0  0  0
 17 20  1  0  0  0  0
 20 21  1  0  0  0  0
 21 22  1  0  0  0  0
 22 23  1  0  0  0  0
 22 66  2  0  0  0  0
 23 24  1  0  0  0  0
 23 65  1  0  0  0  0
 24 25  1  0  0  0  0
 25 26  1  0  0  0  0
 25 63  1  0  0  0  0
 26 27  1  0  0  0  0
 26 62  2  0  0  0  0
 27 28  1  0  0  0  0
 27 55  1  0  0  0  0
 28 29  1  0  0  0  0
 29 30  1  0  0  0  0
 29 54  2  0  0  0  0
 30 31  1  0  0  0  0
 30 34  1  0  0  0  0
 31 32  1  0  0  0  0
 31 33  1  0  0  0  0
 34 35  1  0  0  0  0
 34 53  1  0  0  0  0
 35 36  1  0  0  0  0
 35 52  2  0  0  0  0
 36 37  1  0  0  0  0
 36 51  1  0  0  0  0
 36 73  1  0  0  0  0
 37 38  1  0  0  0  0
 38 39  1  0  0  0  0
 39 40  1  0  0  0  0
 39 50  1  0  0  0  0
 40 41  1  0  0  0  0
 40 49  2  0  0  0  0
 41 42  1  0  0  0  0
 42 43  1  0  0  0  0
 43 44  1  0  0  0  0
 43 47  1  0  0  0  0
 43 48  1  0  0  0  0
 44 45  1  0  0  0  0
 44 46  1  0  0  0  0
 50 51  1  0  0  0  0
 55 56  1  0  0  0  0
 56 57  1  0  0  0  0
 56 61  1  0  0  0  0
 57 58  1  0  0  0  0
 58 59  1  0  0  0  0
 58 71  1  0  0  0  0
 59 60  1  0  0  0  0
 60 61  1  0  0  0  0
 63 64  1  0  0  0  0
 64 65  1  0  0  0  0
 67 68  4  0  0  0  0
 67 72  4  0  0  0  0
 68 69  4  0  0  0  0
 69 70  4  0  0  0  0
 70 71  4  0  0  0  0
 71 72  4  0  0  0  0
M  END
$$$$
