mol_ETKDG4_238
  PyMOL3.1          3D                             0

 73 79  0  0  0  0  0  0  0  0999 V2000
   -1.5028    8.7114   -4.4888 C   0  0  0  0  0  0  0  0  0  0  0  0
   -2.6715    8.1196   -3.7884 C   0  0  0  0  0  0  0  0  0  0  0  0
   -3.7304    7.7426   -4.6610 O   0  0  0  0  0  0  0  0  0  0  0  0
   -3.5031    6.7356   -5.6115 C   0  0  0  0  0  0  0  0  0  0  0  0
   -3.2676    9.0197   -2.7572 C   0  0  0  0  0  0  0  0  0  0  0  0
   -4.1101    9.9411   -3.1747 N   0  0  0  0  0  0  0  0  0  0  0  0
   -4.6803   10.8127   -2.3231 C   0  0  0  0  0  0  0  0  0  0  0  0
   -4.4006   10.7920   -0.9603 C   0  0  0  0  0  0  0  0  0  0  0  0
   -3.5048    9.8356   -0.4926 C   0  0  0  0  0  0  0  0  0  0  0  0
   -2.9464    8.9456   -1.4038 C   0  0  0  0  0  0  0  0  0  0  0  0
   -2.0387    7.9473   -0.9068 C   0  0  0  0  0  0  0  0  0  0  0  0
   -0.7022    8.1133   -0.8328 N   0  0  0  0  0  0  0  0  0  0  0  0
    0.0653    9.3645   -1.1227 C   0  0  0  0  0  0  0  0  0  0  0  0
    1.0141    9.2977   -2.2109 C   0  0  0  0  0  0  0  0  0  0  0  0
   -2.3995    6.6789   -0.3892 C   0  0  0  0  0  0  0  0  0  0  0  0
   -3.7139    6.1029   -0.0558 C   0  0  0  0  0  0  0  0  0  0  0  0
   -4.4740    5.2547   -1.1069 C   0  0  0  0  0  0  0  0  0  0  0  0
   -5.4366    6.1518   -1.8737 C   0  0  0  0  0  0  0  0  0  0  0  0
   -5.3137    4.3060   -0.3398 C   0  0  0  0  0  0  0  0  0  0  0  0
   -3.5949    4.5033   -2.0784 C   0  0  0  0  0  0  0  0  0  0  0  0
   -3.4399    3.0209   -1.8572 O   0  0  0  0  0  0  0  0  0  0  0  0
   -3.3138    2.0537   -2.8916 C   0  0  0  0  0  0  0  0  0  0  0  0
   -3.2206    0.5872   -2.4992 C   0  0  0  0  0  0  0  0  0  0  0  0
   -3.8157    0.4158   -1.2139 N   0  0  0  0  0  0  0  0  0  0  0  0
   -3.8960   -0.8626   -0.6938 N   0  0  0  0  0  0  0  0  0  0  0  0
   -3.3664   -1.1504    0.5309 C   0  0  0  0  0  0  0  0  0  0  0  0
   -2.6552   -0.0635    1.2734 C   0  0  0  0  0  0  0  0  0  0  0  0
   -2.9185   -0.1240    2.6930 N   0  0  0  0  0  0  0  0  0  0  0  0
   -3.8027    0.6607    3.3128 C   0  0  0  0  0  0  0  0  0  0  0  0
   -3.8296    0.5752    4.8078 C   0  0  0  0  0  0  0  0  0  0  0  0
   -5.0835   -0.1713    5.3716 C   0  0  0  0  0  0  0  0  0  0  0  0
   -4.9786   -0.4534    6.8343 C   0  0  0  0  0  0  0  0  0  0  0  0
   -5.4417   -1.3822    4.5730 C   0  0  0  0  0  0  0  0  0  0  0  0
   -3.7453    1.9538    5.2843 N   0  0  0  0  0  0  0  0  0  0  0  0
   -2.5068    2.5448    5.3403 C   0  0  0  0  0  0  0  0  0  0  0  0
   -2.2924    4.0061    5.6023 C   0  0  0  0  0  0  0  0  0  0  0  0
   -2.8059    4.6951    4.3786 C   0  0  0  0  0  0  0  0  0  0  0  0
   -2.6904    6.1231    4.4812 C   0  0  0  0  0  0  0  0  0  0  0  0
   -1.3326    6.5314    4.7106 N   0  0  0  0  0  0  0  0  0  0  0  0
   -0.8742    7.5163    3.8870 C   0  0  0  0  0  0  0  0  0  0  0  0
    0.3599    8.1144    3.9885 C   0  0  0  0  0  0  0  0  0  0  0  0
    1.2723    8.8211    3.9899 C   0  0  0  0  0  0  0  0  0  0  0  0
    2.4382    9.5519    4.1629 C   0  0  0  0  0  0  0  0  0  0  0  0
    2.6709    9.6576    5.5517 N   0  0  0  0  0  0  0  0  0  0  0  0
    3.2380    8.5749    6.2165 C   0  0  0  0  0  0  0  0  0  0  0  0
    2.0625   10.6723    6.2985 C   0  0  0  0  0  0  0  0  0  0  0  0
    2.3287   10.9187    3.5404 C   0  0  0  0  0  0  0  0  0  0  0  0
    3.6113    8.8726    3.4852 C   0  0  0  0  0  0  0  0  0  0  0  0
   -1.6164    7.9384    2.9848 O   0  0  0  0  0  0  0  0  0  0  0  0
   -0.6256    5.8643    5.7858 C   0  0  0  0  0  0  0  0  0  0  0  0
   -0.8141    4.3900    5.7937 C   0  0  0  0  0  0  0  0  0  0  0  0
   -1.5171    1.8350    5.0899 O   0  0  0  0  0  0  0  0  0  0  0  0
   -4.9856    2.6940    5.5590 C   0  0  0  0  0  0  0  0  0  0  0  0
   -4.4351    1.4832    2.6821 O   0  0  0  0  0  0  0  0  0  0  0  0
   -1.1066   -0.1881    1.0336 C   0  0  0  0  0  0  0  0  0  0  0  0
   -0.2379    0.9177    1.6797 C   0  0  0  0  0  0  0  0  0  0  0  0
   -0.2629    2.0845    0.7646 C   0  0  0  0  0  0  0  0  0  0  0  0
    0.6115    3.1411    1.2080 N   0  0  0  0  0  0  0  0  0  0  0  0
    2.0020    2.7017    1.4603 C   0  0  0  0  0  0  0  0  0  0  0  0
    2.0095    1.4460    2.3324 C   0  0  0  0  0  0  0  0  0  0  0  0
    1.1156    0.4132    1.7974 O   0  0  0  0  0  0  0  0  0  0  0  0
   -3.4060   -2.2936    1.0068 O   0  0  0  0  0  0  0  0  0  0  0  0
   -4.6174   -1.8302   -1.5103 C   0  0  0  0  0  0  0  0  0  0  0  0
   -4.0553   -1.7838   -2.9476 C   0  0  0  0  0  0  0  0  0  0  0  0
   -3.9551   -0.3597   -3.4884 C   0  0  0  0  0  0  0  0  0  0  0  0
   -3.2744    2.3281   -4.1013 O   0  0  0  0  0  0  0  0  0  0  0  0
   -1.1811    6.0715   -0.0847 C   0  0  0  0  0  0  0  0  0  0  0  0
   -0.1692    6.9794   -0.3534 C   0  0  0  0  0  0  0  0  0  0  0  0
    1.1826    6.6086   -0.0698 C   0  0  0  0  0  0  0  0  0  0  0  0
    1.4059    5.3282    0.4441 C   0  0  0  0  0  0  0  0  0  0  0  0
    0.3677    4.4258    0.6909 C   0  0  0  0  0  0  0  0  0  0  0  0
   -0.9559    4.8106    0.4547 C   0  0  0  0  0  0  0  0  0  0  0  0
   -2.9417    4.4109    6.7615 F   0  0  0  0  0  0  0  0  0  0  0  0
  1  2  1  0  0  0  0
  2  3  1  0  0  0  0
  2  5  1  0  0  0  0
  3  4  1  0  0  0  0
  5  6  4  0  0  0  0
  5 10  4  0  0  0  0
  6  7  4  0  0  0  0
  7  8  4  0  0  0  0
  8  9  4  0  0  0  0
  9 10  4  0  0  0  0
 10 11  1  0  0  0  0
 11 12  4  0  0  0  0
 11 15  4  0  0  0  0
 12 13  1  0  0  0  0
 12 68  4  0  0  0  0
 13 14  1  0  0  0  0
 15 16  1  0  0  0  0
 15 67  4  0  0  0  0
 16 17  1  0  0  0  0
 17 18  1  0  0  0  0
 17 19  1  0  0  0  0
 17 20  1  0  0  0  0
 20 21  1  0  0  0  0
 21 22  1  0  0  0  0
 22 23  1  0  0  0  0
 22 66  2  0  0  0  0
 23 24  1  0  0  0  0
 23 65  1  0  0  0  0
 24 25  1  0  0  0  0
 25 26  1  0  0  0  0
 25 63  1  0  0  0  0
 26 27  1  0  0  0  0
 26 62  2  0  0  0  0
 27 28  1  0  0  0  0
 27 55  1  0  0  0  0
 28 29  1  0  0  0  0
 29 30  1  0  0  0  0
 29 54  2  0  0  0  0
 30 31  1  0  0  0  0
 30 34  1  0  0  0  0
 31 32  1  0  0  0  0
 31 33  1  0  0  0  0
 34 35  1  0  0  0  0
 34 53  1  0  0  0  0
 35 36  1  0  0  0  0
 35 52  2  0  0  0  0
 36 37  1  0  0  0  0
 36 51  1  0  0  0  0
 36 73  1  0  0  0  0
 37 38  1  0  0  0  0
 38 39  1  0  0  0  0
 39 40  1  0  0  0  0
 39 50  1  0  0  0  0
 40 41  1  0  0  0  0
 40 49  2  0  0  0  0
 41 42  1  0  0  0  0
 42 43  1  0  0  0  0
 43 44  1  0  0  0  0
 43 47  1  0  0  0  0
 43 48  1  0  0  0  0
 44 45  1  0  0  0  0
 44 46  1  0  0  0  0
 50 51  1  0  0  0  0
 55 56  1  0  0  0  0
 56 57  1  0  0  0  0
 56 61  1  0  0  0  0
 57 58  1  0  0  0  0
 58 59  1  0  0  0  0
 58 71  1  0  0  0  0
 59 60  1  0  0  0  0
 60 61  1  0  0  0  0
 63 64  1  0  0  0  0
 64 65  1  0  0  0  0
 67 68  4  0  0  0  0
 67 72  4  0  0  0  0
 68 69  4  0  0  0  0
 69 70  4  0  0  0  0
 70 71  4  0  0  0  0
 71 72  4  0  0  0  0
M  END
$$$$
