mol_ETKDG4_249
  PyMOL3.1          3D                             0

 73 79  0  0  0  0  0  0  0  0999 V2000
   -3.5155    0.4327   -3.6192 C   0  0  0  0  0  0  0  0  0  0  0  0
   -3.2845   -0.4781   -2.4662 C   0  0  0  0  0  0  0  0  0  0  0  0
   -4.2964   -0.4569   -1.4756 O   0  0  0  0  0  0  0  0  0  0  0  0
   -4.3323    0.6426   -0.6038 C   0  0  0  0  0  0  0  0  0  0  0  0
   -3.1279   -1.8942   -2.8757 C   0  0  0  0  0  0  0  0  0  0  0  0
   -4.2112   -2.5463   -3.2690 N   0  0  0  0  0  0  0  0  0  0  0  0
   -4.1403   -3.8257   -3.7061 C   0  0  0  0  0  0  0  0  0  0  0  0
   -2.9227   -4.5123   -3.7735 C   0  0  0  0  0  0  0  0  0  0  0  0
   -1.7606   -3.8387   -3.3740 C   0  0  0  0  0  0  0  0  0  0  0  0
   -1.8800   -2.5264   -2.8877 C   0  0  0  0  0  0  0  0  0  0  0  0
   -0.6869   -1.8565   -2.4206 C   0  0  0  0  0  0  0  0  0  0  0  0
    0.1099   -1.1108   -3.2256 N   0  0  0  0  0  0  0  0  0  0  0  0
   -0.0588   -0.8454   -4.7034 C   0  0  0  0  0  0  0  0  0  0  0  0
    0.8884   -1.6001   -5.5401 C   0  0  0  0  0  0  0  0  0  0  0  0
   -0.2288   -1.8026   -1.0673 C   0  0  0  0  0  0  0  0  0  0  0  0
   -0.8202   -2.3446    0.2142 C   0  0  0  0  0  0  0  0  0  0  0  0
   -0.3919   -3.8071    0.6976 C   0  0  0  0  0  0  0  0  0  0  0  0
   -0.9602   -4.8896   -0.2038 C   0  0  0  0  0  0  0  0  0  0  0  0
   -1.0546   -4.0285    2.0359 C   0  0  0  0  0  0  0  0  0  0  0  0
    1.1283   -4.0461    0.8510 C   0  0  0  0  0  0  0  0  0  0  0  0
    1.7154   -3.6486    2.1959 O   0  0  0  0  0  0  0  0  0  0  0  0
    2.7715   -4.3440    2.8770 C   0  0  0  0  0  0  0  0  0  0  0  0
    3.2621   -3.8335    4.2336 C   0  0  0  0  0  0  0  0  0  0  0  0
    2.3924   -2.8006    4.7060 N   0  0  0  0  0  0  0  0  0  0  0  0
    2.6423   -2.2353    5.9527 N   0  0  0  0  0  0  0  0  0  0  0  0
    2.7514   -0.8791    6.0937 C   0  0  0  0  0  0  0  0  0  0  0  0
    2.6238   -0.0214    4.8688 C   0  0  0  0  0  0  0  0  0  0  0  0
    1.8494    1.1779    5.1267 N   0  0  0  0  0  0  0  0  0  0  0  0
    0.5738    1.3331    4.7092 C   0  0  0  0  0  0  0  0  0  0  0  0
   -0.0422    2.6789    4.9421 C   0  0  0  0  0  0  0  0  0  0  0  0
   -1.0397    2.7311    6.1512 C   0  0  0  0  0  0  0  0  0  0  0  0
   -1.4028    4.1330    6.5300 C   0  0  0  0  0  0  0  0  0  0  0  0
   -0.5937    1.9178    7.3239 C   0  0  0  0  0  0  0  0  0  0  0  0
   -0.6961    3.0630    3.6796 N   0  0  0  0  0  0  0  0  0  0  0  0
    0.0662    3.6489    2.6835 C   0  0  0  0  0  0  0  0  0  0  0  0
   -0.4464    4.0249    1.3083 C   0  0  0  0  0  0  0  0  0  0  0  0
    0.4952    4.9532    0.5268 C   0  0  0  0  0  0  0  0  0  0  0  0
   -0.0054    5.1797   -0.8686 C   0  0  0  0  0  0  0  0  0  0  0  0
   -0.3143    3.9004   -1.5422 N   0  0  0  0  0  0  0  0  0  0  0  0
    0.1381    3.5735   -2.7915 C   0  0  0  0  0  0  0  0  0  0  0  0
    1.1779    4.2582   -3.3675 C   0  0  0  0  0  0  0  0  0  0  0  0
    2.0343    4.7876   -3.9462 C   0  0  0  0  0  0  0  0  0  0  0  0
    3.1092    5.5135   -4.4959 C   0  0  0  0  0  0  0  0  0  0  0  0
    3.1898    5.4519   -5.9179 N   0  0  0  0  0  0  0  0  0  0  0  0
    2.3289    4.6576   -6.6702 C   0  0  0  0  0  0  0  0  0  0  0  0
    4.1545    6.1807   -6.6318 C   0  0  0  0  0  0  0  0  0  0  0  0
    4.4078    4.9768   -3.9049 C   0  0  0  0  0  0  0  0  0  0  0  0
    2.9631    6.9674   -4.0667 C   0  0  0  0  0  0  0  0  0  0  0  0
   -0.3603    2.6108   -3.4012 O   0  0  0  0  0  0  0  0  0  0  0  0
   -1.1266    2.9729   -0.8274 C   0  0  0  0  0  0  0  0  0  0  0  0
   -0.5785    2.7214    0.5274 C   0  0  0  0  0  0  0  0  0  0  0  0
    1.2734    3.8459    2.9302 O   0  0  0  0  0  0  0  0  0  0  0  0
   -2.1099    2.6982    3.4737 C   0  0  0  0  0  0  0  0  0  0  0  0
    0.0226    0.4492    4.0746 O   0  0  0  0  0  0  0  0  0  0  0  0
    4.0521    0.3528    4.3136 C   0  0  0  0  0  0  0  0  0  0  0  0
    4.0354    1.1268    2.9688 C   0  0  0  0  0  0  0  0  0  0  0  0
    3.6194    0.1748    1.8893 C   0  0  0  0  0  0  0  0  0  0  0  0
    3.6861    0.7709    0.5761 N   0  0  0  0  0  0  0  0  0  0  0  0
    4.9720    1.4174    0.2592 C   0  0  0  0  0  0  0  0  0  0  0  0
    5.4496    2.3044    1.4245 C   0  0  0  0  0  0  0  0  0  0  0  0
    5.3856    1.5923    2.7116 O   0  0  0  0  0  0  0  0  0  0  0  0
    2.9826   -0.3505    7.1933 O   0  0  0  0  0  0  0  0  0  0  0  0
    2.7047   -3.1751    7.0764 C   0  0  0  0  0  0  0  0  0  0  0  0
    3.6476   -4.3462    6.7141 C   0  0  0  0  0  0  0  0  0  0  0  0
    3.3445   -4.9467    5.3278 C   0  0  0  0  0  0  0  0  0  0  0  0
    3.3159   -5.3555    2.4152 O   0  0  0  0  0  0  0  0  0  0  0  0
    0.9208   -0.9893   -1.1452 C   0  0  0  0  0  0  0  0  0  0  0  0
    1.0914   -0.5879   -2.4711 C   0  0  0  0  0  0  0  0  0  0  0  0
    2.1818    0.2859   -2.8094 C   0  0  0  0  0  0  0  0  0  0  0  0
    3.0123    0.7116   -1.7664 C   0  0  0  0  0  0  0  0  0  0  0  0
    2.8264    0.3076   -0.4383 C   0  0  0  0  0  0  0  0  0  0  0  0
    1.7569   -0.5586   -0.1167 C   0  0  0  0  0  0  0  0  0  0  0  0
   -1.6631    4.6816    1.3996 F   0  0  0  0  0  0  0  0  0  0  0  0
  1  2  1  0  0  0  0
  2  3  1  0  0  0  0
  2  5  1  0  0  0  0
  3  4  1  0  0  0  0
  5  6  4  0  0  0  0
  5 10  4  0  0  0  0
  6  7  4  0  0  0  0
  7  8  4  0  0  0  0
  8  9  4  0  0  0  0
  9 10  4  0  0  0  0
 10 11  1  0  0  0  0
 11 12  4  0  0  0  0
 11 15  4  0  0  0  0
 12 13  1  0  0  0  0
 12 68  4  0  0  0  0
 13 14  1  0  0  0  0
 15 16  1  0  0  0  0
 15 67  4  0  0  0  0
 16 17  1  0  0  0  0
 17 18  1  0  0  0  0
 17 19  1  0  0  0  0
 17 20  1  0  0  0  0
 20 21  1  0  0  0  0
 21 22  1  0  0  0  0
 22 23  1  0  0  0  0
 22 66  2  0  0  0  0
 23 24  1  0  0  0  0
 23 65  1  0  0  0  0
 24 25  1  0  0  0  0
 25 26  1  0  0  0  0
 25 63  1  0  0  0  0
 26 27  1  0  0  0  0
 26 62  2  0  0  0  0
 27 28  1  0  0  0  0
 27 55  1  0  0  0  0
 28 29  1  0  0  0  0
 29 30  1  0  0  0  0
 29 54  2  0  0  0  0
 30 31  1  0  0  0  0
 30 34  1  0  0  0  0
 31 32  1  0  0  0  0
 31 33  1  0  0  0  0
 34 35  1  0  0  0  0
 34 53  1  0  0  0  0
 35 36  1  0  0  0  0
 35 52  2  0  0  0  0
 36 37  1  0  0  0  0
 36 51  1  0  0  0  0
 36 73  1  0  0  0  0
 37 38  1  0  0  0  0
 38 39  1  0  0  0  0
 39 40  1  0  0  0  0
 39 50  1  0  0  0  0
 40 41  1  0  0  0  0
 40 49  2  0  0  0  0
 41 42  1  0  0  0  0
 42 43  1  0  0  0  0
 43 44  1  0  0  0  0
 43 47  1  0  0  0  0
 43 48  1  0  0  0  0
 44 45  1  0  0  0  0
 44 46  1  0  0  0  0
 50 51  1  0  0  0  0
 55 56  1  0  0  0  0
 56 57  1  0  0  0  0
 56 61  1  0  0  0  0
 57 58  1  0  0  0  0
 58 59  1  0  0  0  0
 58 71  1  0  0  0  0
 59 60  1  0  0  0  0
 60 61  1  0  0  0  0
 63 64  1  0  0  0  0
 64 65  1  0  0  0  0
 67 68  4  0  0  0  0
 67 72  4  0  0  0  0
 68 69  4  0  0  0  0
 69 70  4  0  0  0  0
 70 71  4  0  0  0  0
 71 72  4  0  0  0  0
M  END
$$$$
