mol_ETKDG4_207
  PyMOL3.1          3D                             0

 73 79  0  0  0  0  0  0  0  0999 V2000
   -4.5703   -1.2323   -6.4655 C   0  0  0  0  0  0  0  0  0  0  0  0
   -4.5592   -1.6639   -5.0575 C   0  0  0  0  0  0  0  0  0  0  0  0
   -5.5215   -1.0618   -4.2128 O   0  0  0  0  0  0  0  0  0  0  0  0
   -5.2952    0.2719   -3.8292 C   0  0  0  0  0  0  0  0  0  0  0  0
   -4.6947   -3.1235   -4.9115 C   0  0  0  0  0  0  0  0  0  0  0  0
   -5.9042   -3.6494   -5.0161 N   0  0  0  0  0  0  0  0  0  0  0  0
   -6.0986   -4.9813   -4.9449 C   0  0  0  0  0  0  0  0  0  0  0  0
   -5.0353   -5.8662   -4.7622 C   0  0  0  0  0  0  0  0  0  0  0  0
   -3.7457   -5.3351   -4.6598 C   0  0  0  0  0  0  0  0  0  0  0  0
   -3.5873   -3.9415   -4.7157 C   0  0  0  0  0  0  0  0  0  0  0  0
   -2.2596   -3.3960   -4.5591 C   0  0  0  0  0  0  0  0  0  0  0  0
   -1.3290   -3.3880   -5.5475 N   0  0  0  0  0  0  0  0  0  0  0  0
   -1.4881   -3.8811   -6.9566 C   0  0  0  0  0  0  0  0  0  0  0  0
   -0.7638   -5.1206   -7.2289 C   0  0  0  0  0  0  0  0  0  0  0  0
   -1.7668   -2.7299   -3.4030 C   0  0  0  0  0  0  0  0  0  0  0  0
   -2.4449   -2.3672   -2.1088 C   0  0  0  0  0  0  0  0  0  0  0  0
   -2.4300   -3.4567   -0.9571 C   0  0  0  0  0  0  0  0  0  0  0  0
   -3.1805   -4.7143   -1.3232 C   0  0  0  0  0  0  0  0  0  0  0  0
   -3.1930   -2.8800    0.2100 C   0  0  0  0  0  0  0  0  0  0  0  0
   -1.0154   -3.8417   -0.5278 C   0  0  0  0  0  0  0  0  0  0  0  0
   -0.4194   -2.9291    0.5033 O   0  0  0  0  0  0  0  0  0  0  0  0
    0.2239   -3.3526    1.6928 C   0  0  0  0  0  0  0  0  0  0  0  0
    0.8021   -2.2963    2.6144 C   0  0  0  0  0  0  0  0  0  0  0  0
    0.3150   -1.0071    2.2527 N   0  0  0  0  0  0  0  0  0  0  0  0
    0.7015    0.0793    3.0255 N   0  0  0  0  0  0  0  0  0  0  0  0
    1.2393    1.1968    2.4481 C   0  0  0  0  0  0  0  0  0  0  0  0
    1.3862    1.2448    0.9568 C   0  0  0  0  0  0  0  0  0  0  0  0
    1.0009    2.5332    0.4265 N   0  0  0  0  0  0  0  0  0  0  0  0
   -0.1727    2.7369   -0.2064 C   0  0  0  0  0  0  0  0  0  0  0  0
   -0.3579    4.0835   -0.8339 C   0  0  0  0  0  0  0  0  0  0  0  0
   -1.2347    5.0783   -0.0261 C   0  0  0  0  0  0  0  0  0  0  0  0
   -1.0316    6.4953   -0.4294 C   0  0  0  0  0  0  0  0  0  0  0  0
   -1.2561    4.8580    1.4403 C   0  0  0  0  0  0  0  0  0  0  0  0
   -0.9101    3.8576   -2.1764 N   0  0  0  0  0  0  0  0  0  0  0  0
   -0.0484    3.5290   -3.2013 C   0  0  0  0  0  0  0  0  0  0  0  0
   -0.4779    3.2011   -4.6116 C   0  0  0  0  0  0  0  0  0  0  0  0
    0.6813    3.1423   -5.6191 C   0  0  0  0  0  0  0  0  0  0  0  0
    0.2210    2.6772   -6.9665 C   0  0  0  0  0  0  0  0  0  0  0  0
   -0.5745    1.4394   -6.8596 N   0  0  0  0  0  0  0  0  0  0  0  0
   -0.3564    0.3070   -7.6027 C   0  0  0  0  0  0  0  0  0  0  0  0
    0.8109    0.0889   -8.3090 C   0  0  0  0  0  0  0  0  0  0  0  0
    1.7152   -0.2039   -8.9793 C   0  0  0  0  0  0  0  0  0  0  0  0
    2.8731   -0.4152   -9.7562 C   0  0  0  0  0  0  0  0  0  0  0  0
    2.4937   -0.8390  -11.0792 N   0  0  0  0  0  0  0  0  0  0  0  0
    2.0096    0.1319  -11.9883 C   0  0  0  0  0  0  0  0  0  0  0  0
    2.0717   -2.1820  -11.2942 C   0  0  0  0  0  0  0  0  0  0  0  0
    3.6740    0.8744   -9.8052 C   0  0  0  0  0  0  0  0  0  0  0  0
    3.7643   -1.4582   -9.1117 C   0  0  0  0  0  0  0  0  0  0  0  0
   -1.2167   -0.5905   -7.6131 O   0  0  0  0  0  0  0  0  0  0  0  0
   -1.6275    1.4356   -5.8981 C   0  0  0  0  0  0  0  0  0  0  0  0
   -1.1277    1.8278   -4.5586 C   0  0  0  0  0  0  0  0  0  0  0  0
    1.1674    3.4674   -2.9315 O   0  0  0  0  0  0  0  0  0  0  0  0
   -2.3751    3.8819   -2.3510 C   0  0  0  0  0  0  0  0  0  0  0  0
   -0.9679    1.8183   -0.3503 O   0  0  0  0  0  0  0  0  0  0  0  0
    2.8699    0.9151    0.5186 C   0  0  0  0  0  0  0  0  0  0  0  0
    3.0730    0.8597   -1.0256 C   0  0  0  0  0  0  0  0  0  0  0  0
    2.4734   -0.4097   -1.5095 C   0  0  0  0  0  0  0  0  0  0  0  0
    2.6733   -0.6212   -2.9202 N   0  0  0  0  0  0  0  0  0  0  0  0
    4.0666   -0.4974   -3.3711 C   0  0  0  0  0  0  0  0  0  0  0  0
    4.7268    0.7563   -2.7694 C   0  0  0  0  0  0  0  0  0  0  0  0
    4.4969    0.8587   -1.3157 O   0  0  0  0  0  0  0  0  0  0  0  0
    1.6361    2.1598    3.1307 O   0  0  0  0  0  0  0  0  0  0  0  0
    0.4307   -0.0275    4.4636 C   0  0  0  0  0  0  0  0  0  0  0  0
    0.9345   -1.3880    4.9865 C   0  0  0  0  0  0  0  0  0  0  0  0
    0.4737   -2.5565    4.1130 C   0  0  0  0  0  0  0  0  0  0  0  0
    0.3527   -4.5478    2.0316 O   0  0  0  0  0  0  0  0  0  0  0  0
   -0.4572   -2.3664   -3.7649 C   0  0  0  0  0  0  0  0  0  0  0  0
   -0.2298   -2.7830   -5.0744 C   0  0  0  0  0  0  0  0  0  0  0  0
    1.0304   -2.4965   -5.6945 C   0  0  0  0  0  0  0  0  0  0  0  0
    1.9640   -1.7699   -4.9473 C   0  0  0  0  0  0  0  0  0  0  0  0
    1.7140   -1.3511   -3.6383 C   0  0  0  0  0  0  0  0  0  0  0  0
    0.4804   -1.6510   -3.0344 C   0  0  0  0  0  0  0  0  0  0  0  0
   -1.3634    4.1579   -5.0792 F   0  0  0  0  0  0  0  0  0  0  0  0
  1  2  1  0  0  0  0
  2  3  1  0  0  0  0
  2  5  1  0  0  0  0
  3  4  1  0  0  0  0
  5  6  4  0  0  0  0
  5 10  4  0  0  0  0
  6  7  4  0  0  0  0
  7  8  4  0  0  0  0
  8  9  4  0  0  0  0
  9 10  4  0  0  0  0
 10 11  1  0  0  0  0
 11 12  4  0  0  0  0
 11 15  4  0  0  0  0
 12 13  1  0  0  0  0
 12 68  4  0  0  0  0
 13 14  1  0  0  0  0
 15 16  1  0  0  0  0
 15 67  4  0  0  0  0
 16 17  1  0  0  0  0
 17 18  1  0  0  0  0
 17 19  1  0  0  0  0
 17 20  1  0  0  0  0
 20 21  1  0  0  0  0
 21 22  1  0  0  0  0
 22 23  1  0  0  0  0
 22 66  2  0  0  0  0
 23 24  1  0  0  0  0
 23 65  1  0  0  0  0
 24 25  1  0  0  0  0
 25 26  1  0  0  0  0
 25 63  1  0  0  0  0
 26 27  1  0  0  0  0
 26 62  2  0  0  0  0
 27 28  1  0  0  0  0
 27 55  1  0  0  0  0
 28 29  1  0  0  0  0
 29 30  1  0  0  0  0
 29 54  2  0  0  0  0
 30 31  1  0  0  0  0
 30 34  1  0  0  0  0
 31 32  1  0  0  0  0
 31 33  1  0  0  0  0
 34 35  1  0  0  0  0
 34 53  1  0  0  0  0
 35 36  1  0  0  0  0
 35 52  2  0  0  0  0
 36 37  1  0  0  0  0
 36 51  1  0  0  0  0
 36 73  1  0  0  0  0
 37 38  1  0  0  0  0
 38 39  1  0  0  0  0
 39 40  1  0  0  0  0
 39 50  1  0  0  0  0
 40 41  1  0  0  0  0
 40 49  2  0  0  0  0
 41 42  1  0  0  0  0
 42 43  1  0  0  0  0
 43 44  1  0  0  0  0
 43 47  1  0  0  0  0
 43 48  1  0  0  0  0
 44 45  1  0  0  0  0
 44 46  1  0  0  0  0
 50 51  1  0  0  0  0
 55 56  1  0  0  0  0
 56 57  1  0  0  0  0
 56 61  1  0  0  0  0
 57 58  1  0  0  0  0
 58 59  1  0  0  0  0
 58 71  1  0  0  0  0
 59 60  1  0  0  0  0
 60 61  1  0  0  0  0
 63 64  1  0  0  0  0
 64 65  1  0  0  0  0
 67 68  4  0  0  0  0
 67 72  4  0  0  0  0
 68 69  4  0  0  0  0
 69 70  4  0  0  0  0
 70 71  4  0  0  0  0
 71 72  4  0  0  0  0
M  END
$$$$
