mol_ETKDG0_324
  PyMOL3.1          3D                             0

 73 79  0  0  0  0  0  0  0  0999 V2000
   -2.3440    1.7133   -5.9849 C   0  0  0  0  0  0  0  0  0  0  0  0
   -2.8193    1.3326   -4.6299 C   0  0  0  0  0  0  0  0  0  0  0  0
   -3.4163    2.3946   -3.8933 O   0  0  0  0  0  0  0  0  0  0  0  0
   -2.5474    3.2873   -3.2560 C   0  0  0  0  0  0  0  0  0  0  0  0
   -3.8274    0.2584   -4.6797 C   0  0  0  0  0  0  0  0  0  0  0  0
   -5.0450    0.5875   -5.0752 N   0  0  0  0  0  0  0  0  0  0  0  0
   -6.0093   -0.3398   -5.2098 C   0  0  0  0  0  0  0  0  0  0  0  0
   -5.7656   -1.6896   -4.9451 C   0  0  0  0  0  0  0  0  0  0  0  0
   -4.4773   -2.0635   -4.5349 C   0  0  0  0  0  0  0  0  0  0  0  0
   -3.5155   -1.0659   -4.3697 C   0  0  0  0  0  0  0  0  0  0  0  0
   -2.2128   -1.4587   -3.8813 C   0  0  0  0  0  0  0  0  0  0  0  0
   -1.2173   -1.9080   -4.6816 N   0  0  0  0  0  0  0  0  0  0  0  0
   -1.2433   -2.0371   -6.1761 C   0  0  0  0  0  0  0  0  0  0  0  0
   -1.2848   -3.4121   -6.6533 C   0  0  0  0  0  0  0  0  0  0  0  0
   -1.7682   -1.3631   -2.5371 C   0  0  0  0  0  0  0  0  0  0  0  0
   -2.4540   -0.8387   -1.3054 C   0  0  0  0  0  0  0  0  0  0  0  0
   -3.3295   -1.8867   -0.5010 C   0  0  0  0  0  0  0  0  0  0  0  0
   -4.5208   -2.3958   -1.2684 C   0  0  0  0  0  0  0  0  0  0  0  0
   -3.9300   -1.1602    0.6732 C   0  0  0  0  0  0  0  0  0  0  0  0
   -2.5032   -3.0717   -0.0391 C   0  0  0  0  0  0  0  0  0  0  0  0
   -1.7331   -2.8000    1.2259 O   0  0  0  0  0  0  0  0  0  0  0  0
   -1.7230   -3.6323    2.3741 C   0  0  0  0  0  0  0  0  0  0  0  0
   -0.9508   -3.1821    3.6045 C   0  0  0  0  0  0  0  0  0  0  0  0
   -0.6686   -1.7860    3.5110 N   0  0  0  0  0  0  0  0  0  0  0  0
   -0.0136   -1.1750    4.5736 N   0  0  0  0  0  0  0  0  0  0  0  0
    1.1174   -0.4425    4.3606 C   0  0  0  0  0  0  0  0  0  0  0  0
    1.6414   -0.3343    2.9587 C   0  0  0  0  0  0  0  0  0  0  0  0
    2.0590    1.0083    2.6484 N   0  0  0  0  0  0  0  0  0  0  0  0
    1.3202    1.8510    1.9025 C   0  0  0  0  0  0  0  0  0  0  0  0
    1.9684    3.1428    1.5514 C   0  0  0  0  0  0  0  0  0  0  0  0
    1.4910    4.3585    2.4107 C   0  0  0  0  0  0  0  0  0  0  0  0
    2.3934    5.5403    2.2791 C   0  0  0  0  0  0  0  0  0  0  0  0
    1.2087    3.9971    3.8348 C   0  0  0  0  0  0  0  0  0  0  0  0
    1.7438    3.3352    0.1204 N   0  0  0  0  0  0  0  0  0  0  0  0
    2.5841    2.6935   -0.7522 C   0  0  0  0  0  0  0  0  0  0  0  0
    2.4511    2.7220   -2.2477 C   0  0  0  0  0  0  0  0  0  0  0  0
    3.7411    2.3129   -2.9520 C   0  0  0  0  0  0  0  0  0  0  0  0
    3.5543    2.1973   -4.3910 C   0  0  0  0  0  0  0  0  0  0  0  0
    2.3330    1.4801   -4.7790 N   0  0  0  0  0  0  0  0  0  0  0  0
    2.2797    0.6527   -5.8418 C   0  0  0  0  0  0  0  0  0  0  0  0
    3.4218    0.2838   -6.4907 C   0  0  0  0  0  0  0  0  0  0  0  0
    4.3337    0.0042   -7.1301 C   0  0  0  0  0  0  0  0  0  0  0  0
    5.5769   -0.1882   -7.7256 C   0  0  0  0  0  0  0  0  0  0  0  0
    6.1026    1.0522   -8.2335 N   0  0  0  0  0  0  0  0  0  0  0  0
    7.3990    1.1099   -8.7499 C   0  0  0  0  0  0  0  0  0  0  0  0
    5.2158    2.0750   -8.6239 C   0  0  0  0  0  0  0  0  0  0  0  0
    5.4699   -1.1990   -8.8460 C   0  0  0  0  0  0  0  0  0  0  0  0
    6.5389   -0.7366   -6.6796 C   0  0  0  0  0  0  0  0  0  0  0  0
    1.1792    0.2208   -6.2271 O   0  0  0  0  0  0  0  0  0  0  0  0
    1.1456    1.7045   -4.0305 C   0  0  0  0  0  0  0  0  0  0  0  0
    1.3536    1.7465   -2.6039 C   0  0  0  0  0  0  0  0  0  0  0  0
    3.5045    2.0090   -0.2662 O   0  0  0  0  0  0  0  0  0  0  0  0
    0.5648    4.1011   -0.3176 C   0  0  0  0  0  0  0  0  0  0  0  0
    0.2400    1.5046    1.4526 O   0  0  0  0  0  0  0  0  0  0  0  0
    2.8503   -1.3300    2.7388 C   0  0  0  0  0  0  0  0  0  0  0  0
    3.3628   -1.3913    1.2736 C   0  0  0  0  0  0  0  0  0  0  0  0
    2.3521   -2.1370    0.4747 C   0  0  0  0  0  0  0  0  0  0  0  0
    2.7676   -2.3281   -0.8899 N   0  0  0  0  0  0  0  0  0  0  0  0
    4.0956   -2.9186   -1.0650 C   0  0  0  0  0  0  0  0  0  0  0  0
    5.1179   -2.2565   -0.1233 C   0  0  0  0  0  0  0  0  0  0  0  0
    4.6133   -2.1382    1.2553 O   0  0  0  0  0  0  0  0  0  0  0  0
    1.7261    0.1070    5.2879 O   0  0  0  0  0  0  0  0  0  0  0  0
   -0.6486   -1.3125    5.8850 C   0  0  0  0  0  0  0  0  0  0  0  0
   -1.0053   -2.7972    6.1245 C   0  0  0  0  0  0  0  0  0  0  0  0
   -1.7242   -3.4334    4.9309 C   0  0  0  0  0  0  0  0  0  0  0  0
   -2.3012   -4.7344    2.4330 O   0  0  0  0  0  0  0  0  0  0  0  0
   -0.4357   -1.8178   -2.5965 C   0  0  0  0  0  0  0  0  0  0  0  0
   -0.1409   -2.1451   -3.9161 C   0  0  0  0  0  0  0  0  0  0  0  0
    1.1759   -2.6007   -4.2457 C   0  0  0  0  0  0  0  0  0  0  0  0
    2.1162   -2.6523   -3.2160 C   0  0  0  0  0  0  0  0  0  0  0  0
    1.8016   -2.3012   -1.9022 C   0  0  0  0  0  0  0  0  0  0  0  0
    0.5029   -1.8880   -1.5805 C   0  0  0  0  0  0  0  0  0  0  0  0
    2.1340    3.9827   -2.7071 F   0  0  0  0  0  0  0  0  0  0  0  0
  1  2  1  0  0  0  0
  2  3  1  0  0  0  0
  2  5  1  0  0  0  0
  3  4  1  0  0  0  0
  5  6  4  0  0  0  0
  5 10  4  0  0  0  0
  6  7  4  0  0  0  0
  7  8  4  0  0  0  0
  8  9  4  0  0  0  0
  9 10  4  0  0  0  0
 10 11  1  0  0  0  0
 11 12  4  0  0  0  0
 11 15  4  0  0  0  0
 12 13  1  0  0  0  0
 12 68  4  0  0  0  0
 13 14  1  0  0  0  0
 15 16  1  0  0  0  0
 15 67  4  0  0  0  0
 16 17  1  0  0  0  0
 17 18  1  0  0  0  0
 17 19  1  0  0  0  0
 17 20  1  0  0  0  0
 20 21  1  0  0  0  0
 21 22  1  0  0  0  0
 22 23  1  0  0  0  0
 22 66  2  0  0  0  0
 23 24  1  0  0  0  0
 23 65  1  0  0  0  0
 24 25  1  0  0  0  0
 25 26  1  0  0  0  0
 25 63  1  0  0  0  0
 26 27  1  0  0  0  0
 26 62  2  0  0  0  0
 27 28  1  0  0  0  0
 27 55  1  0  0  0  0
 28 29  1  0  0  0  0
 29 30  1  0  0  0  0
 29 54  2  0  0  0  0
 30 31  1  0  0  0  0
 30 34  1  0  0  0  0
 31 32  1  0  0  0  0
 31 33  1  0  0  0  0
 34 35  1  0  0  0  0
 34 53  1  0  0  0  0
 35 36  1  0  0  0  0
 35 52  2  0  0  0  0
 36 37  1  0  0  0  0
 36 51  1  0  0  0  0
 36 73  1  0  0  0  0
 37 38  1  0  0  0  0
 38 39  1  0  0  0  0
 39 40  1  0  0  0  0
 39 50  1  0  0  0  0
 40 41  1  0  0  0  0
 40 49  2  0  0  0  0
 41 42  1  0  0  0  0
 42 43  1  0  0  0  0
 43 44  1  0  0  0  0
 43 47  1  0  0  0  0
 43 48  1  0  0  0  0
 44 45  1  0  0  0  0
 44 46  1  0  0  0  0
 50 51  1  0  0  0  0
 55 56  1  0  0  0  0
 56 57  1  0  0  0  0
 56 61  1  0  0  0  0
 57 58  1  0  0  0  0
 58 59  1  0  0  0  0
 58 71  1  0  0  0  0
 59 60  1  0  0  0  0
 60 61  1  0  0  0  0
 63 64  1  0  0  0  0
 64 65  1  0  0  0  0
 67 68  4  0  0  0  0
 67 72  4  0  0  0  0
 68 69  4  0  0  0  0
 69 70  4  0  0  0  0
 70 71  4  0  0  0  0
 71 72  4  0  0  0  0
M  END
$$$$
