mol_ETKDG0_349
  PyMOL3.1          3D                             0

 73 79  0  0  0  0  0  0  0  0999 V2000
    6.2154    5.3733   -0.5385 C   0  0  0  0  0  0  0  0  0  0  0  0
    5.3308    5.0327    0.6001 C   0  0  0  0  0  0  0  0  0  0  0  0
    4.2476    5.8802    0.8155 O   0  0  0  0  0  0  0  0  0  0  0  0
    3.1817    5.8265   -0.1128 C   0  0  0  0  0  0  0  0  0  0  0  0
    6.0450    4.9054    1.8825 C   0  0  0  0  0  0  0  0  0  0  0  0
    6.6866    5.9668    2.3442 N   0  0  0  0  0  0  0  0  0  0  0  0
    7.4341    5.8981    3.4650 C   0  0  0  0  0  0  0  0  0  0  0  0
    7.5686    4.7049    4.1818 C   0  0  0  0  0  0  0  0  0  0  0  0
    6.8949    3.5698    3.7096 C   0  0  0  0  0  0  0  0  0  0  0  0
    6.0937    3.6974    2.5705 C   0  0  0  0  0  0  0  0  0  0  0  0
    5.3349    2.5571    2.1179 C   0  0  0  0  0  0  0  0  0  0  0  0
    5.8164    1.6566    1.2294 N   0  0  0  0  0  0  0  0  0  0  0  0
    7.1653    1.6509    0.5599 C   0  0  0  0  0  0  0  0  0  0  0  0
    8.0935    0.6974    1.1798 C   0  0  0  0  0  0  0  0  0  0  0  0
    3.9823    2.2713    2.4453 C   0  0  0  0  0  0  0  0  0  0  0  0
    2.9753    3.0272    3.2901 C   0  0  0  0  0  0  0  0  0  0  0  0
    2.9244    2.6426    4.8349 C   0  0  0  0  0  0  0  0  0  0  0  0
    1.8585    3.5021    5.4939 C   0  0  0  0  0  0  0  0  0  0  0  0
    4.1757    3.0029    5.5463 C   0  0  0  0  0  0  0  0  0  0  0  0
    2.6110    1.1783    5.0452 C   0  0  0  0  0  0  0  0  0  0  0  0
    1.1523    0.7986    4.9971 O   0  0  0  0  0  0  0  0  0  0  0  0
    0.5088   -0.0624    5.9442 C   0  0  0  0  0  0  0  0  0  0  0  0
   -0.9659   -0.3991    5.7596 C   0  0  0  0  0  0  0  0  0  0  0  0
   -1.5924    0.5573    4.8959 N   0  0  0  0  0  0  0  0  0  0  0  0
   -2.9614    0.4199    4.6639 N   0  0  0  0  0  0  0  0  0  0  0  0
   -3.4601    0.3408    3.3970 C   0  0  0  0  0  0  0  0  0  0  0  0
   -2.4852    0.3154    2.2642 C   0  0  0  0  0  0  0  0  0  0  0  0
   -2.9739    1.0060    1.0876 N   0  0  0  0  0  0  0  0  0  0  0  0
   -2.5321    2.2193    0.7104 C   0  0  0  0  0  0  0  0  0  0  0  0
   -3.0046    2.7031   -0.6143 C   0  0  0  0  0  0  0  0  0  0  0  0
   -4.1170    3.8011   -0.5477 C   0  0  0  0  0  0  0  0  0  0  0  0
   -4.7554    4.0578   -1.8765 C   0  0  0  0  0  0  0  0  0  0  0  0
   -5.1147    3.5725    0.5416 C   0  0  0  0  0  0  0  0  0  0  0  0
   -1.8057    3.1511   -1.3290 N   0  0  0  0  0  0  0  0  0  0  0  0
   -1.0455    2.2050   -1.9777 C   0  0  0  0  0  0  0  0  0  0  0  0
    0.2389    2.4775   -2.7110 C   0  0  0  0  0  0  0  0  0  0  0  0
    0.4875    1.4805   -3.8426 C   0  0  0  0  0  0  0  0  0  0  0  0
    1.8036    1.7337   -4.4697 C   0  0  0  0  0  0  0  0  0  0  0  0
    2.8779    1.7934   -3.4591 N   0  0  0  0  0  0  0  0  0  0  0  0
    4.0372    1.0851   -3.5867 C   0  0  0  0  0  0  0  0  0  0  0  0
    4.1746    0.1447   -4.5721 C   0  0  0  0  0  0  0  0  0  0  0  0
    4.3855   -0.5999   -5.4285 C   0  0  0  0  0  0  0  0  0  0  0  0
    4.3306   -1.4057   -6.5827 C   0  0  0  0  0  0  0  0  0  0  0  0
    3.9845   -0.5433   -7.6764 N   0  0  0  0  0  0  0  0  0  0  0  0
    2.7099   -0.5600   -8.2450 C   0  0  0  0  0  0  0  0  0  0  0  0
    4.9289    0.3827   -8.1628 C   0  0  0  0  0  0  0  0  0  0  0  0
    5.6384   -2.0863   -6.8677 C   0  0  0  0  0  0  0  0  0  0  0  0
    3.3004   -2.5139   -6.4048 C   0  0  0  0  0  0  0  0  0  0  0  0
    4.9725    1.2854   -2.7941 O   0  0  0  0  0  0  0  0  0  0  0  0
    2.6670    2.6351   -2.3178 C   0  0  0  0  0  0  0  0  0  0  0  0
    1.3612    2.3774   -1.6863 C   0  0  0  0  0  0  0  0  0  0  0  0
   -1.4364    1.0216   -1.9243 O   0  0  0  0  0  0  0  0  0  0  0  0
   -1.3932    4.5569   -1.2243 C   0  0  0  0  0  0  0  0  0  0  0  0
   -1.6957    2.8070    1.3769 O   0  0  0  0  0  0  0  0  0  0  0  0
   -2.1916   -1.1891    1.8911 C   0  0  0  0  0  0  0  0  0  0  0  0
   -1.0961   -1.3837    0.8200 C   0  0  0  0  0  0  0  0  0  0  0  0
    0.2157   -1.1531    1.4843 C   0  0  0  0  0  0  0  0  0  0  0  0
    1.3089   -1.4133    0.5891 N   0  0  0  0  0  0  0  0  0  0  0  0
    1.2723   -2.7157   -0.0750 C   0  0  0  0  0  0  0  0  0  0  0  0
   -0.1281   -3.0104   -0.6358 C   0  0  0  0  0  0  0  0  0  0  0  0
   -1.1644   -2.7611    0.3673 O   0  0  0  0  0  0  0  0  0  0  0  0
   -4.6726    0.2336    3.1712 O   0  0  0  0  0  0  0  0  0  0  0  0
   -3.8141    0.4392    5.8491 C   0  0  0  0  0  0  0  0  0  0  0  0
   -3.2634   -0.5763    6.8692 C   0  0  0  0  0  0  0  0  0  0  0  0
   -1.7547   -0.4098    7.1053 C   0  0  0  0  0  0  0  0  0  0  0  0
    1.0869   -0.5755    6.9237 O   0  0  0  0  0  0  0  0  0  0  0  0
    3.7138    1.1060    1.7070 C   0  0  0  0  0  0  0  0  0  0  0  0
    4.8557    0.7666    0.9815 C   0  0  0  0  0  0  0  0  0  0  0  0
    4.8249   -0.3601    0.1048 C   0  0  0  0  0  0  0  0  0  0  0  0
    3.6247   -1.0506    0.0017 C   0  0  0  0  0  0  0  0  0  0  0  0
    2.4946   -0.6962    0.7343 C   0  0  0  0  0  0  0  0  0  0  0  0
    2.5285    0.3994    1.6099 C   0  0  0  0  0  0  0  0  0  0  0  0
    0.2464    3.7210   -3.2928 F   0  0  0  0  0  0  0  0  0  0  0  0
  1  2  1  0  0  0  0
  2  3  1  0  0  0  0
  2  5  1  0  0  0  0
  3  4  1  0  0  0  0
  5  6  4  0  0  0  0
  5 10  4  0  0  0  0
  6  7  4  0  0  0  0
  7  8  4  0  0  0  0
  8  9  4  0  0  0  0
  9 10  4  0  0  0  0
 10 11  1  0  0  0  0
 11 12  4  0  0  0  0
 11 15  4  0  0  0  0
 12 13  1  0  0  0  0
 12 68  4  0  0  0  0
 13 14  1  0  0  0  0
 15 16  1  0  0  0  0
 15 67  4  0  0  0  0
 16 17  1  0  0  0  0
 17 18  1  0  0  0  0
 17 19  1  0  0  0  0
 17 20  1  0  0  0  0
 20 21  1  0  0  0  0
 21 22  1  0  0  0  0
 22 23  1  0  0  0  0
 22 66  2  0  0  0  0
 23 24  1  0  0  0  0
 23 65  1  0  0  0  0
 24 25  1  0  0  0  0
 25 26  1  0  0  0  0
 25 63  1  0  0  0  0
 26 27  1  0  0  0  0
 26 62  2  0  0  0  0
 27 28  1  0  0  0  0
 27 55  1  0  0  0  0
 28 29  1  0  0  0  0
 29 30  1  0  0  0  0
 29 54  2  0  0  0  0
 30 31  1  0  0  0  0
 30 34  1  0  0  0  0
 31 32  1  0  0  0  0
 31 33  1  0  0  0  0
 34 35  1  0  0  0  0
 34 53  1  0  0  0  0
 35 36  1  0  0  0  0
 35 52  2  0  0  0  0
 36 37  1  0  0  0  0
 36 51  1  0  0  0  0
 36 73  1  0  0  0  0
 37 38  1  0  0  0  0
 38 39  1  0  0  0  0
 39 40  1  0  0  0  0
 39 50  1  0  0  0  0
 40 41  1  0  0  0  0
 40 49  2  0  0  0  0
 41 42  1  0  0  0  0
 42 43  1  0  0  0  0
 43 44  1  0  0  0  0
 43 47  1  0  0  0  0
 43 48  1  0  0  0  0
 44 45  1  0  0  0  0
 44 46  1  0  0  0  0
 50 51  1  0  0  0  0
 55 56  1  0  0  0  0
 56 57  1  0  0  0  0
 56 61  1  0  0  0  0
 57 58  1  0  0  0  0
 58 59  1  0  0  0  0
 58 71  1  0  0  0  0
 59 60  1  0  0  0  0
 60 61  1  0  0  0  0
 63 64  1  0  0  0  0
 64 65  1  0  0  0  0
 67 68  4  0  0  0  0
 67 72  4  0  0  0  0
 68 69  4  0  0  0  0
 69 70  4  0  0  0  0
 70 71  4  0  0  0  0
 71 72  4  0  0  0  0
M  END
$$$$
