mol_ETKDG0_325
  PyMOL3.1          3D                             0

 73 79  0  0  0  0  0  0  0  0999 V2000
   -0.7425    4.5175    5.9353 C   0  0  0  0  0  0  0  0  0  0  0  0
    0.2242    3.4076    6.1309 C   0  0  0  0  0  0  0  0  0  0  0  0
   -0.0946    2.5294    7.1944 O   0  0  0  0  0  0  0  0  0  0  0  0
   -1.2234    1.7001    7.0182 C   0  0  0  0  0  0  0  0  0  0  0  0
    1.6071    3.8872    6.3523 C   0  0  0  0  0  0  0  0  0  0  0  0
    1.9202    4.3365    7.5602 N   0  0  0  0  0  0  0  0  0  0  0  0
    3.1398    4.8502    7.8219 C   0  0  0  0  0  0  0  0  0  0  0  0
    4.1240    4.9414    6.8294 C   0  0  0  0  0  0  0  0  0  0  0  0
    3.8069    4.4821    5.5375 C   0  0  0  0  0  0  0  0  0  0  0  0
    2.5420    3.9276    5.3142 C   0  0  0  0  0  0  0  0  0  0  0  0
    2.2376    3.3987    4.0026 C   0  0  0  0  0  0  0  0  0  0  0  0
    1.6507    4.1283    3.0105 N   0  0  0  0  0  0  0  0  0  0  0  0
    1.2226    5.5726    3.0522 C   0  0  0  0  0  0  0  0  0  0  0  0
    2.1325    6.4692    2.3268 C   0  0  0  0  0  0  0  0  0  0  0  0
    2.4038    2.0441    3.6015 C   0  0  0  0  0  0  0  0  0  0  0  0
    2.8925    0.8332    4.3693 C   0  0  0  0  0  0  0  0  0  0  0  0
    4.4510    0.5039    4.2748 C   0  0  0  0  0  0  0  0  0  0  0  0
    5.3235    1.5570    4.9199 C   0  0  0  0  0  0  0  0  0  0  0  0
    4.7055   -0.7451    5.0887 C   0  0  0  0  0  0  0  0  0  0  0  0
    4.9113    0.2843    2.8335 C   0  0  0  0  0  0  0  0  0  0  0  0
    4.6678   -1.1206    2.3205 O   0  0  0  0  0  0  0  0  0  0  0  0
    5.6509   -1.9185    1.6445 C   0  0  0  0  0  0  0  0  0  0  0  0
    5.2752   -3.3314    1.2041 C   0  0  0  0  0  0  0  0  0  0  0  0
    4.0912   -3.7529    1.8903 N   0  0  0  0  0  0  0  0  0  0  0  0
    3.6216   -5.0355    1.6354 N   0  0  0  0  0  0  0  0  0  0  0  0
    2.3426   -5.2359    1.2099 C   0  0  0  0  0  0  0  0  0  0  0  0
    1.4698   -4.0383    0.9807 C   0  0  0  0  0  0  0  0  0  0  0  0
    0.0810   -4.3249    1.2839 N   0  0  0  0  0  0  0  0  0  0  0  0
   -0.5553   -3.8072    2.3463 C   0  0  0  0  0  0  0  0  0  0  0  0
   -2.0258   -4.0706    2.4319 C   0  0  0  0  0  0  0  0  0  0  0  0
   -2.4190   -5.2119    3.3852 C   0  0  0  0  0  0  0  0  0  0  0  0
   -1.4561   -5.6330    4.4021 C   0  0  0  0  0  0  0  0  0  0  0  0
   -3.2318   -6.2898    2.7341 C   0  0  0  0  0  0  0  0  0  0  0  0
   -2.6687   -2.7969    2.7989 N   0  0  0  0  0  0  0  0  0  0  0  0
   -2.8604   -1.8511    1.8237 C   0  0  0  0  0  0  0  0  0  0  0  0
   -3.4496   -0.4800    2.0578 C   0  0  0  0  0  0  0  0  0  0  0  0
   -2.3493    0.3741    2.6515 C   0  0  0  0  0  0  0  0  0  0  0  0
   -2.8413    1.7571    2.9383 C   0  0  0  0  0  0  0  0  0  0  0  0
   -3.3618    2.3256    1.6892 N   0  0  0  0  0  0  0  0  0  0  0  0
   -2.8654    3.5117    1.2178 C   0  0  0  0  0  0  0  0  0  0  0  0
   -2.9356    3.8274   -0.1248 C   0  0  0  0  0  0  0  0  0  0  0  0
   -2.9584    4.2044   -1.2071 C   0  0  0  0  0  0  0  0  0  0  0  0
   -3.0905    4.5069   -2.5776 C   0  0  0  0  0  0  0  0  0  0  0  0
   -3.7046    5.7806   -2.7149 N   0  0  0  0  0  0  0  0  0  0  0  0
   -5.0827    5.9098   -2.9589 C   0  0  0  0  0  0  0  0  0  0  0  0
   -2.9911    6.9562   -2.3427 C   0  0  0  0  0  0  0  0  0  0  0  0
   -3.9062    3.4041   -3.2439 C   0  0  0  0  0  0  0  0  0  0  0  0
   -1.7402    4.5200   -3.2765 C   0  0  0  0  0  0  0  0  0  0  0  0
   -2.2869    4.2903    1.9732 O   0  0  0  0  0  0  0  0  0  0  0  0
   -4.3752    1.5644    0.9975 C   0  0  0  0  0  0  0  0  0  0  0  0
   -3.9482    0.1688    0.7532 C   0  0  0  0  0  0  0  0  0  0  0  0
   -2.5027   -2.1469    0.6667 O   0  0  0  0  0  0  0  0  0  0  0  0
   -2.9808   -2.5231    4.2109 C   0  0  0  0  0  0  0  0  0  0  0  0
    0.0284   -3.0508    3.1138 O   0  0  0  0  0  0  0  0  0  0  0  0
    1.6029   -3.5887   -0.5350 C   0  0  0  0  0  0  0  0  0  0  0  0
    0.8215   -2.2932   -0.8872 C   0  0  0  0  0  0  0  0  0  0  0  0
    1.6192   -1.1486   -0.3783 C   0  0  0  0  0  0  0  0  0  0  0  0
    1.0168    0.1156   -0.7125 N   0  0  0  0  0  0  0  0  0  0  0  0
    0.6980    0.3002   -2.1352 C   0  0  0  0  0  0  0  0  0  0  0  0
   -0.0052   -0.9517   -2.6951 C   0  0  0  0  0  0  0  0  0  0  0  0
    0.7175   -2.1861   -2.3331 O   0  0  0  0  0  0  0  0  0  0  0  0
    1.9106   -6.3708    0.9620 O   0  0  0  0  0  0  0  0  0  0  0  0
    4.5623   -6.1261    1.9126 C   0  0  0  0  0  0  0  0  0  0  0  0
    5.9120   -5.8113    1.2232 C   0  0  0  0  0  0  0  0  0  0  0  0
    6.4009   -4.3765    1.5030 C   0  0  0  0  0  0  0  0  0  0  0  0
    6.7909   -1.5232    1.3677 O   0  0  0  0  0  0  0  0  0  0  0  0
    1.8999    2.0339    2.2806 C   0  0  0  0  0  0  0  0  0  0  0  0
    1.4509    3.3181    1.9599 C   0  0  0  0  0  0  0  0  0  0  0  0
    0.8588    3.5607    0.6786 C   0  0  0  0  0  0  0  0  0  0  0  0
    0.7274    2.4687   -0.1801 C   0  0  0  0  0  0  0  0  0  0  0  0
    1.1723    1.1909    0.1661 C   0  0  0  0  0  0  0  0  0  0  0  0
    1.7682    0.9591    1.4159 C   0  0  0  0  0  0  0  0  0  0  0  0
   -4.5603   -0.5461    2.8852 F   0  0  0  0  0  0  0  0  0  0  0  0
  1  2  1  0  0  0  0
  2  3  1  0  0  0  0
  2  5  1  0  0  0  0
  3  4  1  0  0  0  0
  5  6  4  0  0  0  0
  5 10  4  0  0  0  0
  6  7  4  0  0  0  0
  7  8  4  0  0  0  0
  8  9  4  0  0  0  0
  9 10  4  0  0  0  0
 10 11  1  0  0  0  0
 11 12  4  0  0  0  0
 11 15  4  0  0  0  0
 12 13  1  0  0  0  0
 12 68  4  0  0  0  0
 13 14  1  0  0  0  0
 15 16  1  0  0  0  0
 15 67  4  0  0  0  0
 16 17  1  0  0  0  0
 17 18  1  0  0  0  0
 17 19  1  0  0  0  0
 17 20  1  0  0  0  0
 20 21  1  0  0  0  0
 21 22  1  0  0  0  0
 22 23  1  0  0  0  0
 22 66  2  0  0  0  0
 23 24  1  0  0  0  0
 23 65  1  0  0  0  0
 24 25  1  0  0  0  0
 25 26  1  0  0  0  0
 25 63  1  0  0  0  0
 26 27  1  0  0  0  0
 26 62  2  0  0  0  0
 27 28  1  0  0  0  0
 27 55  1  0  0  0  0
 28 29  1  0  0  0  0
 29 30  1  0  0  0  0
 29 54  2  0  0  0  0
 30 31  1  0  0  0  0
 30 34  1  0  0  0  0
 31 32  1  0  0  0  0
 31 33  1  0  0  0  0
 34 35  1  0  0  0  0
 34 53  1  0  0  0  0
 35 36  1  0  0  0  0
 35 52  2  0  0  0  0
 36 37  1  0  0  0  0
 36 51  1  0  0  0  0
 36 73  1  0  0  0  0
 37 38  1  0  0  0  0
 38 39  1  0  0  0  0
 39 40  1  0  0  0  0
 39 50  1  0  0  0  0
 40 41  1  0  0  0  0
 40 49  2  0  0  0  0
 41 42  1  0  0  0  0
 42 43  1  0  0  0  0
 43 44  1  0  0  0  0
 43 47  1  0  0  0  0
 43 48  1  0  0  0  0
 44 45  1  0  0  0  0
 44 46  1  0  0  0  0
 50 51  1  0  0  0  0
 55 56  1  0  0  0  0
 56 57  1  0  0  0  0
 56 61  1  0  0  0  0
 57 58  1  0  0  0  0
 58 59  1  0  0  0  0
 58 71  1  0  0  0  0
 59 60  1  0  0  0  0
 60 61  1  0  0  0  0
 63 64  1  0  0  0  0
 64 65  1  0  0  0  0
 67 68  4  0  0  0  0
 67 72  4  0  0  0  0
 68 69  4  0  0  0  0
 69 70  4  0  0  0  0
 70 71  4  0  0  0  0
 71 72  4  0  0  0  0
M  END
$$$$
