mol_ETKDG4_226
  PyMOL3.1          3D                             0

 73 79  0  0  0  0  0  0  0  0999 V2000
    4.1119   -0.5867    2.3058 C   0  0  0  0  0  0  0  0  0  0  0  0
    3.4670   -1.9069    2.1468 C   0  0  0  0  0  0  0  0  0  0  0  0
    3.0204   -2.5170    3.3397 O   0  0  0  0  0  0  0  0  0  0  0  0
    1.8834   -1.9392    3.9571 C   0  0  0  0  0  0  0  0  0  0  0  0
    4.3264   -2.8842    1.4504 C   0  0  0  0  0  0  0  0  0  0  0  0
    5.3078   -3.4529    2.1284 N   0  0  0  0  0  0  0  0  0  0  0  0
    6.1623   -4.3203    1.5376 C   0  0  0  0  0  0  0  0  0  0  0  0
    6.0543   -4.6430    0.1782 C   0  0  0  0  0  0  0  0  0  0  0  0
    5.0277   -4.0401   -0.5570 C   0  0  0  0  0  0  0  0  0  0  0  0
    4.1489   -3.1656    0.1033 C   0  0  0  0  0  0  0  0  0  0  0  0
    3.0820   -2.5680   -0.6570 C   0  0  0  0  0  0  0  0  0  0  0  0
    3.2512   -1.4522   -1.4077 N   0  0  0  0  0  0  0  0  0  0  0  0
    4.5040   -0.6352   -1.5923 C   0  0  0  0  0  0  0  0  0  0  0  0
    5.2020   -0.9473   -2.8486 C   0  0  0  0  0  0  0  0  0  0  0  0
    1.7240   -2.9854   -0.6646 C   0  0  0  0  0  0  0  0  0  0  0  0
    1.0121   -4.0801    0.0937 C   0  0  0  0  0  0  0  0  0  0  0  0
    1.0207   -5.5286   -0.5662 C   0  0  0  0  0  0  0  0  0  0  0  0
    0.2138   -6.4512    0.3288 C   0  0  0  0  0  0  0  0  0  0  0  0
    2.3825   -6.1280   -0.5899 C   0  0  0  0  0  0  0  0  0  0  0  0
    0.4533   -5.5304   -1.9669 C   0  0  0  0  0  0  0  0  0  0  0  0
   -1.0392   -5.6534   -2.1032 O   0  0  0  0  0  0  0  0  0  0  0  0
   -1.6843   -6.5436   -3.0175 C   0  0  0  0  0  0  0  0  0  0  0  0
   -3.2004   -6.4749   -3.1507 C   0  0  0  0  0  0  0  0  0  0  0  0
   -3.7786   -6.0132   -1.9183 N   0  0  0  0  0  0  0  0  0  0  0  0
   -5.1699   -5.9479   -1.8516 N   0  0  0  0  0  0  0  0  0  0  0  0
   -5.8193   -4.7840   -1.5357 C   0  0  0  0  0  0  0  0  0  0  0  0
   -4.9942   -3.5477   -1.3477 C   0  0  0  0  0  0  0  0  0  0  0  0
   -5.4647   -2.6802   -0.2851 N   0  0  0  0  0  0  0  0  0  0  0  0
   -4.9335   -2.6298    0.9482 C   0  0  0  0  0  0  0  0  0  0  0  0
   -5.4212   -1.5166    1.8171 C   0  0  0  0  0  0  0  0  0  0  0  0
   -6.4307   -1.9587    2.9269 C   0  0  0  0  0  0  0  0  0  0  0  0
   -7.3855   -2.9983    2.4690 C   0  0  0  0  0  0  0  0  0  0  0  0
   -7.1227   -0.7767    3.5570 C   0  0  0  0  0  0  0  0  0  0  0  0
   -4.2346   -0.8289    2.3349 N   0  0  0  0  0  0  0  0  0  0  0  0
   -3.6620    0.1537    1.5577 C   0  0  0  0  0  0  0  0  0  0  0  0
   -2.3987    0.9240    1.8684 C   0  0  0  0  0  0  0  0  0  0  0  0
   -2.4055    2.2983    1.1823 C   0  0  0  0  0  0  0  0  0  0  0  0
   -1.0821    2.9943    1.3170 C   0  0  0  0  0  0  0  0  0  0  0  0
    0.0166    2.0912    0.9052 N   0  0  0  0  0  0  0  0  0  0  0  0
    0.9550    2.3719   -0.0592 C   0  0  0  0  0  0  0  0  0  0  0  0
    0.7267    3.1291   -1.2133 C   0  0  0  0  0  0  0  0  0  0  0  0
    0.7176    3.7311   -2.2256 C   0  0  0  0  0  0  0  0  0  0  0  0
    0.6175    4.4877   -3.4171 C   0  0  0  0  0  0  0  0  0  0  0  0
    1.5570    5.5658   -3.3715 N   0  0  0  0  0  0  0  0  0  0  0  0
    1.1995    6.7920   -2.7738 C   0  0  0  0  0  0  0  0  0  0  0  0
    2.9448    5.2869   -3.5103 C   0  0  0  0  0  0  0  0  0  0  0  0
   -0.8093    4.9815   -3.5704 C   0  0  0  0  0  0  0  0  0  0  0  0
    0.9006    3.6319   -4.6396 C   0  0  0  0  0  0  0  0  0  0  0  0
    2.0772    1.8492    0.0466 O   0  0  0  0  0  0  0  0  0  0  0  0
    0.0602    0.8171    1.5565 C   0  0  0  0  0  0  0  0  0  0  0  0
   -1.2391    0.0929    1.3360 C   0  0  0  0  0  0  0  0  0  0  0  0
   -4.2233    0.4063    0.4695 O   0  0  0  0  0  0  0  0  0  0  0  0
   -3.6341   -1.3047    3.5939 C   0  0  0  0  0  0  0  0  0  0  0  0
   -4.0277   -3.3718    1.2667 O   0  0  0  0  0  0  0  0  0  0  0  0
   -5.0359   -2.7405   -2.6986 C   0  0  0  0  0  0  0  0  0  0  0  0
   -4.2026   -1.4482   -2.7010 C   0  0  0  0  0  0  0  0  0  0  0  0
   -2.8073   -1.8578   -2.9579 C   0  0  0  0  0  0  0  0  0  0  0  0
   -1.9436   -0.7256   -3.0692 N   0  0  0  0  0  0  0  0  0  0  0  0
   -2.3818    0.3210   -4.0149 C   0  0  0  0  0  0  0  0  0  0  0  0
   -3.8739    0.6386   -3.8268 C   0  0  0  0  0  0  0  0  0  0  0  0
   -4.6743   -0.5894   -3.7768 O   0  0  0  0  0  0  0  0  0  0  0  0
   -7.0552   -4.7048   -1.4762 O   0  0  0  0  0  0  0  0  0  0  0  0
   -5.8696   -7.2124   -2.0802 C   0  0  0  0  0  0  0  0  0  0  0  0
   -5.3596   -7.8162   -3.4088 C   0  0  0  0  0  0  0  0  0  0  0  0
   -3.8293   -7.8705   -3.4704 C   0  0  0  0  0  0  0  0  0  0  0  0
   -1.0882   -7.3890   -3.7249 O   0  0  0  0  0  0  0  0  0  0  0  0
    1.1041   -2.0577   -1.5191 C   0  0  0  0  0  0  0  0  0  0  0  0
    2.0672   -1.1434   -1.9477 C   0  0  0  0  0  0  0  0  0  0  0  0
    1.6891   -0.0704   -2.8143 C   0  0  0  0  0  0  0  0  0  0  0  0
    0.3440    0.0268   -3.1615 C   0  0  0  0  0  0  0  0  0  0  0  0
   -0.6065   -0.8773   -2.7088 C   0  0  0  0  0  0  0  0  0  0  0  0
   -0.2310   -1.9547   -1.8765 C   0  0  0  0  0  0  0  0  0  0  0  0
   -2.2387    1.1422    3.2181 F   0  0  0  0  0  0  0  0  0  0  0  0
  1  2  1  0  0  0  0
  2  3  1  0  0  0  0
  2  5  1  0  0  0  0
  3  4  1  0  0  0  0
  5  6  4  0  0  0  0
  5 10  4  0  0  0  0
  6  7  4  0  0  0  0
  7  8  4  0  0  0  0
  8  9  4  0  0  0  0
  9 10  4  0  0  0  0
 10 11  1  0  0  0  0
 11 12  4  0  0  0  0
 11 15  4  0  0  0  0
 12 13  1  0  0  0  0
 12 68  4  0  0  0  0
 13 14  1  0  0  0  0
 15 16  1  0  0  0  0
 15 67  4  0  0  0  0
 16 17  1  0  0  0  0
 17 18  1  0  0  0  0
 17 19  1  0  0  0  0
 17 20  1  0  0  0  0
 20 21  1  0  0  0  0
 21 22  1  0  0  0  0
 22 23  1  0  0  0  0
 22 66  2  0  0  0  0
 23 24  1  0  0  0  0
 23 65  1  0  0  0  0
 24 25  1  0  0  0  0
 25 26  1  0  0  0  0
 25 63  1  0  0  0  0
 26 27  1  0  0  0  0
 26 62  2  0  0  0  0
 27 28  1  0  0  0  0
 27 55  1  0  0  0  0
 28 29  1  0  0  0  0
 29 30  1  0  0  0  0
 29 54  2  0  0  0  0
 30 31  1  0  0  0  0
 30 34  1  0  0  0  0
 31 32  1  0  0  0  0
 31 33  1  0  0  0  0
 34 35  1  0  0  0  0
 34 53  1  0  0  0  0
 35 36  1  0  0  0  0
 35 52  2  0  0  0  0
 36 37  1  0  0  0  0
 36 51  1  0  0  0  0
 36 73  1  0  0  0  0
 37 38  1  0  0  0  0
 38 39  1  0  0  0  0
 39 40  1  0  0  0  0
 39 50  1  0  0  0  0
 40 41  1  0  0  0  0
 40 49  2  0  0  0  0
 41 42  1  0  0  0  0
 42 43  1  0  0  0  0
 43 44  1  0  0  0  0
 43 47  1  0  0  0  0
 43 48  1  0  0  0  0
 44 45  1  0  0  0  0
 44 46  1  0  0  0  0
 50 51  1  0  0  0  0
 55 56  1  0  0  0  0
 56 57  1  0  0  0  0
 56 61  1  0  0  0  0
 57 58  1  0  0  0  0
 58 59  1  0  0  0  0
 58 71  1  0  0  0  0
 59 60  1  0  0  0  0
 60 61  1  0  0  0  0
 63 64  1  0  0  0  0
 64 65  1  0  0  0  0
 67 68  4  0  0  0  0
 67 72  4  0  0  0  0
 68 69  4  0  0  0  0
 69 70  4  0  0  0  0
 70 71  4  0  0  0  0
 71 72  4  0  0  0  0
M  END
$$$$
