mol_ETKDG2_122
  PyMOL3.1          3D                             0

 73 79  0  0  0  0  0  0  0  0999 V2000
   -1.9607    3.3593    4.1184 C   0  0  0  0  0  0  0  0  0  0  0  0
   -1.8776    1.9882    4.6777 C   0  0  0  0  0  0  0  0  0  0  0  0
   -1.6059    1.9444    6.0786 O   0  0  0  0  0  0  0  0  0  0  0  0
   -0.2813    2.1406    6.4848 C   0  0  0  0  0  0  0  0  0  0  0  0
   -3.1152    1.2099    4.4601 C   0  0  0  0  0  0  0  0  0  0  0  0
   -4.0989    1.3612    5.3310 N   0  0  0  0  0  0  0  0  0  0  0  0
   -5.2768    0.7148    5.1842 C   0  0  0  0  0  0  0  0  0  0  0  0
   -5.5167   -0.1326    4.0961 C   0  0  0  0  0  0  0  0  0  0  0  0
   -4.4962   -0.2974    3.1563 C   0  0  0  0  0  0  0  0  0  0  0  0
   -3.2736    0.3707    3.3608 C   0  0  0  0  0  0  0  0  0  0  0  0
   -2.2242    0.1648    2.3857 C   0  0  0  0  0  0  0  0  0  0  0  0
   -2.1951    0.8140    1.1978 N   0  0  0  0  0  0  0  0  0  0  0  0
   -3.1368    1.8877    0.7213 C   0  0  0  0  0  0  0  0  0  0  0  0
   -4.0523    1.4653   -0.3272 C   0  0  0  0  0  0  0  0  0  0  0  0
   -1.0789   -0.6664    2.5326 C   0  0  0  0  0  0  0  0  0  0  0  0
   -0.5776   -1.4672    3.7128 C   0  0  0  0  0  0  0  0  0  0  0  0
   -1.0659   -2.9734    3.8235 C   0  0  0  0  0  0  0  0  0  0  0  0
   -2.5691   -3.1097    3.8688 C   0  0  0  0  0  0  0  0  0  0  0  0
   -0.5780   -3.5147    5.1496 C   0  0  0  0  0  0  0  0  0  0  0  0
   -0.5482   -3.8363    2.6838 C   0  0  0  0  0  0  0  0  0  0  0  0
    0.8509   -4.3885    2.8355 O   0  0  0  0  0  0  0  0  0  0  0  0
    1.2300   -5.7193    2.4713 C   0  0  0  0  0  0  0  0  0  0  0  0
    2.6920   -6.1122    2.5535 C   0  0  0  0  0  0  0  0  0  0  0  0
    3.4601   -5.0979    3.2127 N   0  0  0  0  0  0  0  0  0  0  0  0
    4.8303   -5.3204    3.3644 N   0  0  0  0  0  0  0  0  0  0  0  0
    5.7513   -4.4122    2.9177 C   0  0  0  0  0  0  0  0  0  0  0  0
    5.2456   -3.1679    2.2483 C   0  0  0  0  0  0  0  0  0  0  0  0
    6.0830   -2.0188    2.5286 N   0  0  0  0  0  0  0  0  0  0  0  0
    5.6997   -0.9909    3.3029 C   0  0  0  0  0  0  0  0  0  0  0  0
    6.5980    0.1989    3.3306 C   0  0  0  0  0  0  0  0  0  0  0  0
    7.5381    0.2886    4.5256 C   0  0  0  0  0  0  0  0  0  0  0  0
    8.8122    0.9955    4.3160 C   0  0  0  0  0  0  0  0  0  0  0  0
    7.4859   -0.7402    5.5669 C   0  0  0  0  0  0  0  0  0  0  0  0
    5.7421    1.3915    3.2220 N   0  0  0  0  0  0  0  0  0  0  0  0
    5.3045    1.7683    1.9725 C   0  0  0  0  0  0  0  0  0  0  0  0
    4.3653    2.9244    1.7132 C   0  0  0  0  0  0  0  0  0  0  0  0
    2.9936    2.5022    2.1815 C   0  0  0  0  0  0  0  0  0  0  0  0
    1.9992    3.5942    1.9976 C   0  0  0  0  0  0  0  0  0  0  0  0
    1.9763    3.9913    0.5874 N   0  0  0  0  0  0  0  0  0  0  0  0
    0.7901    4.0165   -0.0978 C   0  0  0  0  0  0  0  0  0  0  0  0
    0.7622    4.0129   -1.4829 C   0  0  0  0  0  0  0  0  0  0  0  0
    0.6288    4.0514   -2.6214 C   0  0  0  0  0  0  0  0  0  0  0  0
    0.7320    4.0919   -4.0319 C   0  0  0  0  0  0  0  0  0  0  0  0
    0.9874    5.4292   -4.4509 N   0  0  0  0  0  0  0  0  0  0  0  0
   -0.0196    6.2314   -5.0014 C   0  0  0  0  0  0  0  0  0  0  0  0
    2.2110    6.0576   -4.1393 C   0  0  0  0  0  0  0  0  0  0  0  0
    1.8583    3.1685   -4.4969 C   0  0  0  0  0  0  0  0  0  0  0  0
   -0.5372    3.5670   -4.6704 C   0  0  0  0  0  0  0  0  0  0  0  0
   -0.2800    3.9886    0.5101 O   0  0  0  0  0  0  0  0  0  0  0  0
    3.2419    4.3251   -0.0095 C   0  0  0  0  0  0  0  0  0  0  0  0
    4.2652    3.2846    0.2196 C   0  0  0  0  0  0  0  0  0  0  0  0
    5.7058    1.1014    0.9984 O   0  0  0  0  0  0  0  0  0  0  0  0
    5.2868    2.0640    4.4502 C   0  0  0  0  0  0  0  0  0  0  0  0
    4.5947   -1.0049    3.8364 O   0  0  0  0  0  0  0  0  0  0  0  0
    5.1997   -3.4061    0.6828 C   0  0  0  0  0  0  0  0  0  0  0  0
    4.6279   -2.2185   -0.1327 C   0  0  0  0  0  0  0  0  0  0  0  0
    3.1505   -2.2436    0.0142 C   0  0  0  0  0  0  0  0  0  0  0  0
    2.5118   -1.2332   -0.7844 N   0  0  0  0  0  0  0  0  0  0  0  0
    2.8947   -1.2390   -2.2055 C   0  0  0  0  0  0  0  0  0  0  0  0
    4.4189   -1.3436   -2.3548 C   0  0  0  0  0  0  0  0  0  0  0  0
    4.9691   -2.4246   -1.5274 O   0  0  0  0  0  0  0  0  0  0  0  0
    6.9725   -4.6064    3.0120 O   0  0  0  0  0  0  0  0  0  0  0  0
    5.1928   -6.5408    4.0807 C   0  0  0  0  0  0  0  0  0  0  0  0
    4.4320   -7.7413    3.4764 C   0  0  0  0  0  0  0  0  0  0  0  0
    2.9300   -7.4623    3.2928 C   0  0  0  0  0  0  0  0  0  0  0  0
    0.4306   -6.5996    2.0938 O   0  0  0  0  0  0  0  0  0  0  0  0
   -0.4017   -0.5068    1.3095 C   0  0  0  0  0  0  0  0  0  0  0  0
   -1.1125    0.4034    0.5295 C   0  0  0  0  0  0  0  0  0  0  0  0
   -0.6185    0.7525   -0.7678 C   0  0  0  0  0  0  0  0  0  0  0  0
    0.5907    0.1992   -1.1674 C   0  0  0  0  0  0  0  0  0  0  0  0
    1.2984   -0.6959   -0.3605 C   0  0  0  0  0  0  0  0  0  0  0  0
    0.7977   -1.0604    0.9021 C   0  0  0  0  0  0  0  0  0  0  0  0
    4.8212    4.0651    2.3549 F   0  0  0  0  0  0  0  0  0  0  0  0
  1  2  1  0  0  0  0
  2  3  1  0  0  0  0
  2  5  1  0  0  0  0
  3  4  1  0  0  0  0
  5  6  4  0  0  0  0
  5 10  4  0  0  0  0
  6  7  4  0  0  0  0
  7  8  4  0  0  0  0
  8  9  4  0  0  0  0
  9 10  4  0  0  0  0
 10 11  1  0  0  0  0
 11 12  4  0  0  0  0
 11 15  4  0  0  0  0
 12 13  1  0  0  0  0
 12 68  4  0  0  0  0
 13 14  1  0  0  0  0
 15 16  1  0  0  0  0
 15 67  4  0  0  0  0
 16 17  1  0  0  0  0
 17 18  1  0  0  0  0
 17 19  1  0  0  0  0
 17 20  1  0  0  0  0
 20 21  1  0  0  0  0
 21 22  1  0  0  0  0
 22 23  1  0  0  0  0
 22 66  2  0  0  0  0
 23 24  1  0  0  0  0
 23 65  1  0  0  0  0
 24 25  1  0  0  0  0
 25 26  1  0  0  0  0
 25 63  1  0  0  0  0
 26 27  1  0  0  0  0
 26 62  2  0  0  0  0
 27 28  1  0  0  0  0
 27 55  1  0  0  0  0
 28 29  1  0  0  0  0
 29 30  1  0  0  0  0
 29 54  2  0  0  0  0
 30 31  1  0  0  0  0
 30 34  1  0  0  0  0
 31 32  1  0  0  0  0
 31 33  1  0  0  0  0
 34 35  1  0  0  0  0
 34 53  1  0  0  0  0
 35 36  1  0  0  0  0
 35 52  2  0  0  0  0
 36 37  1  0  0  0  0
 36 51  1  0  0  0  0
 36 73  1  0  0  0  0
 37 38  1  0  0  0  0
 38 39  1  0  0  0  0
 39 40  1  0  0  0  0
 39 50  1  0  0  0  0
 40 41  1  0  0  0  0
 40 49  2  0  0  0  0
 41 42  1  0  0  0  0
 42 43  1  0  0  0  0
 43 44  1  0  0  0  0
 43 47  1  0  0  0  0
 43 48  1  0  0  0  0
 44 45  1  0  0  0  0
 44 46  1  0  0  0  0
 50 51  1  0  0  0  0
 55 56  1  0  0  0  0
 56 57  1  0  0  0  0
 56 61  1  0  0  0  0
 57 58  1  0  0  0  0
 58 59  1  0  0  0  0
 58 71  1  0  0  0  0
 59 60  1  0  0  0  0
 60 61  1  0  0  0  0
 63 64  1  0  0  0  0
 64 65  1  0  0  0  0
 67 68  4  0  0  0  0
 67 72  4  0  0  0  0
 68 69  4  0  0  0  0
 69 70  4  0  0  0  0
 70 71  4  0  0  0  0
 71 72  4  0  0  0  0
M  END
$$$$
