mol_bioactive_33
  PyMOL3.1          3D                             0

 73 79  0  0  0  0  0  0  0  0999 V2000
    3.2536    1.5871   -2.5992 C   0  0  0  0  0  0  0  0  0  0  0  0
    2.8849    2.5122   -3.6652 C   0  0  0  0  0  0  0  0  0  0  0  0
    3.8099    2.5009   -4.7559 O   0  0  0  0  0  0  0  0  0  0  0  0
    3.4797    1.6867   -5.8281 C   0  0  0  0  0  0  0  0  0  0  0  0
    2.7360    3.9132   -3.2280 C   0  0  0  0  0  0  0  0  0  0  0  0
    3.8019    4.6842   -3.2655 N   0  0  0  0  0  0  0  0  0  0  0  0
    3.7359    5.9946   -2.9550 C   0  0  0  0  0  0  0  0  0  0  0  0
    2.5472    6.5862   -2.5404 C   0  0  0  0  0  0  0  0  0  0  0  0
    1.4096    5.7845   -2.4745 C   0  0  0  0  0  0  0  0  0  0  0  0
    1.5235    4.4258   -2.7920 C   0  0  0  0  0  0  0  0  0  0  0  0
    0.3525    3.6023   -2.6398 C   0  0  0  0  0  0  0  0  0  0  0  0
   -0.5732    3.4351   -3.6033 N   0  0  0  0  0  0  0  0  0  0  0  0
   -0.5364    3.9950   -4.9879 C   0  0  0  0  0  0  0  0  0  0  0  0
   -1.4866    5.0896   -5.1830 C   0  0  0  0  0  0  0  0  0  0  0  0
    0.0310    2.8207   -1.5076 C   0  0  0  0  0  0  0  0  0  0  0  0
    0.8337    2.5536   -0.2706 C   0  0  0  0  0  0  0  0  0  0  0  0
    0.5179    3.4766    0.9537 C   0  0  0  0  0  0  0  0  0  0  0  0
    1.6477    3.3315    1.9563 C   0  0  0  0  0  0  0  0  0  0  0  0
    0.4720    4.9154    0.6370 C   0  0  0  0  0  0  0  0  0  0  0  0
   -0.8359    3.0595    1.4721 C   0  0  0  0  0  0  0  0  0  0  0  0
   -0.8521    1.7612    2.2278 O   0  0  0  0  0  0  0  0  0  0  0  0
   -1.0042    1.6977    3.6464 C   0  0  0  0  0  0  0  0  0  0  0  0
   -1.3779    0.3777    4.2727 C   0  0  0  0  0  0  0  0  0  0  0  0
   -0.7658   -0.7158    3.5795 N   0  0  0  0  0  0  0  0  0  0  0  0
   -0.9843   -1.9808    4.1214 N   0  0  0  0  0  0  0  0  0  0  0  0
   -1.5756   -2.9775    3.4063 C   0  0  0  0  0  0  0  0  0  0  0  0
   -2.0377   -2.7161    2.0045 C   0  0  0  0  0  0  0  0  0  0  0  0
   -1.8556   -3.8958    1.1793 N   0  0  0  0  0  0  0  0  0  0  0  0
   -0.8328   -4.1064    0.3641 C   0  0  0  0  0  0  0  0  0  0  0  0
   -0.9032   -5.3334   -0.4846 C   0  0  0  0  0  0  0  0  0  0  0  0
   -0.0364   -6.5165   -0.0026 C   0  0  0  0  0  0  0  0  0  0  0  0
   -0.5514   -7.8465   -0.4180 C   0  0  0  0  0  0  0  0  0  0  0  0
    0.4412   -6.4374    1.3932 C   0  0  0  0  0  0  0  0  0  0  0  0
   -0.5723   -4.9220   -1.8330 N   0  0  0  0  0  0  0  0  0  0  0  0
   -1.5304   -4.2643   -2.5447 C   0  0  0  0  0  0  0  0  0  0  0  0
   -1.2956   -3.6376   -3.8779 C   0  0  0  0  0  0  0  0  0  0  0  0
   -0.3532   -2.4919   -3.6409 C   0  0  0  0  0  0  0  0  0  0  0  0
   -0.0221   -1.8186   -4.8682 C   0  0  0  0  0  0  0  0  0  0  0  0
   -1.2197   -1.3936   -5.5682 N   0  0  0  0  0  0  0  0  0  0  0  0
   -1.2550   -0.1411   -6.0593 C   0  0  0  0  0  0  0  0  0  0  0  0
   -2.3050    0.3207   -6.8305 C   0  0  0  0  0  0  0  0  0  0  0  0
   -3.0273    0.8603   -7.5450 C   0  0  0  0  0  0  0  0  0  0  0  0
   -3.9364    1.4493   -8.4168 C   0  0  0  0  0  0  0  0  0  0  0  0
   -3.2765    2.5341   -9.0682 N   0  0  0  0  0  0  0  0  0  0  0  0
   -2.0564    2.2627   -9.7363 C   0  0  0  0  0  0  0  0  0  0  0  0
   -3.5865    3.8770   -8.8210 C   0  0  0  0  0  0  0  0  0  0  0  0
   -4.3946    0.4288   -9.4539 C   0  0  0  0  0  0  0  0  0  0  0  0
   -5.1594    1.8926   -7.6592 C   0  0  0  0  0  0  0  0  0  0  0  0
   -0.3220    0.6275   -5.8264 O   0  0  0  0  0  0  0  0  0  0  0  0
   -2.2860   -2.3423   -5.7153 C   0  0  0  0  0  0  0  0  0  0  0  0
   -2.5824   -3.0836   -4.5017 C   0  0  0  0  0  0  0  0  0  0  0  0
   -2.6556   -4.1601   -2.0292 O   0  0  0  0  0  0  0  0  0  0  0  0
    0.8020   -5.1196   -2.3279 C   0  0  0  0  0  0  0  0  0  0  0  0
    0.0378   -3.2611    0.2328 O   0  0  0  0  0  0  0  0  0  0  0  0
   -3.5665   -2.3291    2.0427 C   0  0  0  0  0  0  0  0  0  0  0  0
   -4.2653   -1.4835    0.9595 C   0  0  0  0  0  0  0  0  0  0  0  0
   -3.3390   -0.7594    0.1057 C   0  0  0  0  0  0  0  0  0  0  0  0
   -3.9382   -0.0501   -0.9851 N   0  0  0  0  0  0  0  0  0  0  0  0
   -5.2893   -0.3184   -1.3650 C   0  0  0  0  0  0  0  0  0  0  0  0
   -5.9672   -1.4703   -0.7071 C   0  0  0  0  0  0  0  0  0  0  0  0
   -5.1776   -2.2959    0.1903 O   0  0  0  0  0  0  0  0  0  0  0  0
   -1.7951   -4.0903    3.9070 O   0  0  0  0  0  0  0  0  0  0  0  0
   -0.5082   -2.1644    5.4818 C   0  0  0  0  0  0  0  0  0  0  0  0
   -1.1229   -1.0614    6.3586 C   0  0  0  0  0  0  0  0  0  0  0  0
   -0.9324    0.3171    5.7619 C   0  0  0  0  0  0  0  0  0  0  0  0
   -0.8188    2.6567    4.4331 O   0  0  0  0  0  0  0  0  0  0  0  0
   -1.2017    2.2329   -1.8450 C   0  0  0  0  0  0  0  0  0  0  0  0
   -1.5290    2.6278   -3.1289 C   0  0  0  0  0  0  0  0  0  0  0  0
   -2.7284    2.1309   -3.7234 C   0  0  0  0  0  0  0  0  0  0  0  0
   -3.4967    1.2390   -2.9823 C   0  0  0  0  0  0  0  0  0  0  0  0
   -3.1537    0.8530   -1.6921 C   0  0  0  0  0  0  0  0  0  0  0  0
   -1.9904    1.3669   -1.0968 C   0  0  0  0  0  0  0  0  0  0  0  0
   -0.7946   -4.5657   -4.7699 F   0  0  0  0  0  0  0  0  0  0  0  0
  1  2  1  0  0  0  0
  2  3  1  0  0  0  0
  2  5  1  0  0  0  0
  3  4  1  0  0  0  0
  5  6  4  0  0  0  0
  5 10  4  0  0  0  0
  6  7  4  0  0  0  0
  7  8  4  0  0  0  0
  8  9  4  0  0  0  0
  9 10  4  0  0  0  0
 10 11  1  0  0  0  0
 11 12  4  0  0  0  0
 11 15  4  0  0  0  0
 12 13  1  0  0  0  0
 12 68  4  0  0  0  0
 13 14  1  0  0  0  0
 15 16  1  0  0  0  0
 15 67  4  0  0  0  0
 16 17  1  0  0  0  0
 17 18  1  0  0  0  0
 17 19  1  0  0  0  0
 17 20  1  0  0  0  0
 20 21  1  0  0  0  0
 21 22  1  0  0  0  0
 22 23  1  0  0  0  0
 22 66  2  0  0  0  0
 23 24  1  0  0  0  0
 23 65  1  0  0  0  0
 24 25  1  0  0  0  0
 25 26  1  0  0  0  0
 25 63  1  0  0  0  0
 26 27  1  0  0  0  0
 26 62  2  0  0  0  0
 27 28  1  0  0  0  0
 27 55  1  0  0  0  0
 28 29  1  0  0  0  0
 29 30  1  0  0  0  0
 29 54  2  0  0  0  0
 30 31  1  0  0  0  0
 30 34  1  0  0  0  0
 31 32  1  0  0  0  0
 31 33  1  0  0  0  0
 34 35  1  0  0  0  0
 34 53  1  0  0  0  0
 35 36  1  0  0  0  0
 35 52  2  0  0  0  0
 36 37  1  0  0  0  0
 36 51  1  0  0  0  0
 36 73  1  0  0  0  0
 37 38  1  0  0  0  0
 38 39  1  0  0  0  0
 39 40  1  0  0  0  0
 39 50  1  0  0  0  0
 40 41  1  0  0  0  0
 40 49  2  0  0  0  0
 41 42  1  0  0  0  0
 42 43  1  0  0  0  0
 43 44  1  0  0  0  0
 43 47  1  0  0  0  0
 43 48  1  0  0  0  0
 44 45  1  0  0  0  0
 44 46  1  0  0  0  0
 50 51  1  0  0  0  0
 55 56  1  0  0  0  0
 56 57  1  0  0  0  0
 56 61  1  0  0  0  0
 57 58  1  0  0  0  0
 58 59  1  0  0  0  0
 58 71  1  0  0  0  0
 59 60  1  0  0  0  0
 60 61  1  0  0  0  0
 63 64  1  0  0  0  0
 64 65  1  0  0  0  0
 67 68  4  0  0  0  0
 67 72  4  0  0  0  0
 68 69  4  0  0  0  0
 69 70  4  0  0  0  0
 70 71  4  0  0  0  0
 71 72  4  0  0  0  0
M  END
$$$$
