mol_ETKDG1_86
  PyMOL3.1          3D                             0

 73 79  0  0  0  0  0  0  0  0999 V2000
    3.7827   -3.3147    1.8642 C   0  0  0  0  0  0  0  0  0  0  0  0
    2.3164   -3.1802    2.0216 C   0  0  0  0  0  0  0  0  0  0  0  0
    1.5715   -4.2743    1.5112 O   0  0  0  0  0  0  0  0  0  0  0  0
    1.3832   -4.3141    0.1258 C   0  0  0  0  0  0  0  0  0  0  0  0
    1.9258   -3.0354    3.4338 C   0  0  0  0  0  0  0  0  0  0  0  0
    2.0423   -4.0986    4.2078 N   0  0  0  0  0  0  0  0  0  0  0  0
    1.7616   -4.0391    5.5211 C   0  0  0  0  0  0  0  0  0  0  0  0
    1.3470   -2.8582    6.1287 C   0  0  0  0  0  0  0  0  0  0  0  0
    1.2254   -1.7191    5.3344 C   0  0  0  0  0  0  0  0  0  0  0  0
    1.4945   -1.8256    3.9655 C   0  0  0  0  0  0  0  0  0  0  0  0
    1.3128   -0.6459    3.1552 C   0  0  0  0  0  0  0  0  0  0  0  0
    2.2374    0.3384    3.0581 N   0  0  0  0  0  0  0  0  0  0  0  0
    3.5949    0.3824    3.6970 C   0  0  0  0  0  0  0  0  0  0  0  0
    3.6467    1.2659    4.8641 C   0  0  0  0  0  0  0  0  0  0  0  0
    0.1982   -0.3652    2.3120 C   0  0  0  0  0  0  0  0  0  0  0  0
   -1.0063   -1.1857    1.9459 C   0  0  0  0  0  0  0  0  0  0  0  0
   -2.2868   -1.0533    2.8725 C   0  0  0  0  0  0  0  0  0  0  0  0
   -2.0299   -1.5131    4.2839 C   0  0  0  0  0  0  0  0  0  0  0  0
   -3.3157   -2.0033    2.3258 C   0  0  0  0  0  0  0  0  0  0  0  0
   -2.8532    0.3594    2.9307 C   0  0  0  0  0  0  0  0  0  0  0  0
   -3.8045    0.7426    1.8210 O   0  0  0  0  0  0  0  0  0  0  0  0
   -5.0313    1.4564    2.0097 C   0  0  0  0  0  0  0  0  0  0  0  0
   -5.8658    1.8410    0.7977 C   0  0  0  0  0  0  0  0  0  0  0  0
   -5.4417    1.1006   -0.3482 N   0  0  0  0  0  0  0  0  0  0  0  0
   -6.1356    1.3066   -1.5345 N   0  0  0  0  0  0  0  0  0  0  0  0
   -5.4861    1.6814   -2.6705 C   0  0  0  0  0  0  0  0  0  0  0  0
   -4.0005    1.8764   -2.6179 C   0  0  0  0  0  0  0  0  0  0  0  0
   -3.3672    1.5113   -3.8618 N   0  0  0  0  0  0  0  0  0  0  0  0
   -2.6854    0.3841   -4.0352 C   0  0  0  0  0  0  0  0  0  0  0  0
   -1.9215    0.2426   -5.3064 C   0  0  0  0  0  0  0  0  0  0  0  0
   -2.5910   -0.6581   -6.3659 C   0  0  0  0  0  0  0  0  0  0  0  0
   -2.2411   -0.3172   -7.7619 C   0  0  0  0  0  0  0  0  0  0  0  0
   -4.0004   -1.0198   -6.1338 C   0  0  0  0  0  0  0  0  0  0  0  0
   -0.5931   -0.2449   -4.9208 N   0  0  0  0  0  0  0  0  0  0  0  0
    0.3184    0.6608   -4.4291 C   0  0  0  0  0  0  0  0  0  0  0  0
    1.6640    0.2929   -3.8547 C   0  0  0  0  0  0  0  0  0  0  0  0
    1.3985   -0.3480   -2.5277 C   0  0  0  0  0  0  0  0  0  0  0  0
    2.6304   -0.8382   -1.9354 C   0  0  0  0  0  0  0  0  0  0  0  0
    3.6206    0.2126   -1.7886 N   0  0  0  0  0  0  0  0  0  0  0  0
    4.2693    0.2601   -0.5913 C   0  0  0  0  0  0  0  0  0  0  0  0
    5.2658    1.1741   -0.2170 C   0  0  0  0  0  0  0  0  0  0  0  0
    6.1578    1.6915    0.3668 C   0  0  0  0  0  0  0  0  0  0  0  0
    7.2230    2.3658    0.9442 C   0  0  0  0  0  0  0  0  0  0  0  0
    7.8718    3.1447   -0.0262 N   0  0  0  0  0  0  0  0  0  0  0  0
    7.8168    4.5357    0.0068 C   0  0  0  0  0  0  0  0  0  0  0  0
    8.6881    2.5276   -0.9820 C   0  0  0  0  0  0  0  0  0  0  0  0
    6.7327    3.2260    2.0999 C   0  0  0  0  0  0  0  0  0  0  0  0
    8.2424    1.4031    1.5435 C   0  0  0  0  0  0  0  0  0  0  0  0
    3.9635   -0.5924    0.2450 O   0  0  0  0  0  0  0  0  0  0  0  0
    3.8475    1.0733   -2.9269 C   0  0  0  0  0  0  0  0  0  0  0  0
    2.6004    1.4917   -3.6221 C   0  0  0  0  0  0  0  0  0  0  0  0
   -0.0146    1.8584   -4.4266 O   0  0  0  0  0  0  0  0  0  0  0  0
   -0.3285   -1.6927   -4.9484 C   0  0  0  0  0  0  0  0  0  0  0  0
   -2.6024   -0.4165   -3.1193 O   0  0  0  0  0  0  0  0  0  0  0  0
   -3.6827    3.3907   -2.3086 C   0  0  0  0  0  0  0  0  0  0  0  0
   -2.1734    3.7203   -2.1787 C   0  0  0  0  0  0  0  0  0  0  0  0
   -1.7402    3.2717   -0.8285 C   0  0  0  0  0  0  0  0  0  0  0  0
   -0.3684    3.6196   -0.5535 N   0  0  0  0  0  0  0  0  0  0  0  0
   -0.0580    5.0464   -0.7552 C   0  0  0  0  0  0  0  0  0  0  0  0
   -0.6132    5.5347   -2.0970 C   0  0  0  0  0  0  0  0  0  0  0  0
   -2.0214    5.1607   -2.2746 O   0  0  0  0  0  0  0  0  0  0  0  0
   -6.0935    1.9113   -3.7265 O   0  0  0  0  0  0  0  0  0  0  0  0
   -7.5675    1.0421   -1.4905 C   0  0  0  0  0  0  0  0  0  0  0  0
   -8.1726    1.8104   -0.3014 C   0  0  0  0  0  0  0  0  0  0  0  0
   -7.3917    1.5818    0.9993 C   0  0  0  0  0  0  0  0  0  0  0  0
   -5.4665    1.7942    3.1196 O   0  0  0  0  0  0  0  0  0  0  0  0
    0.5135    0.8836    1.7551 C   0  0  0  0  0  0  0  0  0  0  0  0
    1.7616    1.2736    2.2244 C   0  0  0  0  0  0  0  0  0  0  0  0
    2.3309    2.5007    1.7584 C   0  0  0  0  0  0  0  0  0  0  0  0
    1.5961    3.2436    0.8305 C   0  0  0  0  0  0  0  0  0  0  0  0
    0.3449    2.8401    0.3739 C   0  0  0  0  0  0  0  0  0  0  0  0
   -0.2071    1.6302    0.8335 C   0  0  0  0  0  0  0  0  0  0  0  0
    2.3409   -0.5366   -4.7127 F   0  0  0  0  0  0  0  0  0  0  0  0
  1  2  1  0  0  0  0
  2  3  1  0  0  0  0
  2  5  1  0  0  0  0
  3  4  1  0  0  0  0
  5  6  4  0  0  0  0
  5 10  4  0  0  0  0
  6  7  4  0  0  0  0
  7  8  4  0  0  0  0
  8  9  4  0  0  0  0
  9 10  4  0  0  0  0
 10 11  1  0  0  0  0
 11 12  4  0  0  0  0
 11 15  4  0  0  0  0
 12 13  1  0  0  0  0
 12 68  4  0  0  0  0
 13 14  1  0  0  0  0
 15 16  1  0  0  0  0
 15 67  4  0  0  0  0
 16 17  1  0  0  0  0
 17 18  1  0  0  0  0
 17 19  1  0  0  0  0
 17 20  1  0  0  0  0
 20 21  1  0  0  0  0
 21 22  1  0  0  0  0
 22 23  1  0  0  0  0
 22 66  2  0  0  0  0
 23 24  1  0  0  0  0
 23 65  1  0  0  0  0
 24 25  1  0  0  0  0
 25 26  1  0  0  0  0
 25 63  1  0  0  0  0
 26 27  1  0  0  0  0
 26 62  2  0  0  0  0
 27 28  1  0  0  0  0
 27 55  1  0  0  0  0
 28 29  1  0  0  0  0
 29 30  1  0  0  0  0
 29 54  2  0  0  0  0
 30 31  1  0  0  0  0
 30 34  1  0  0  0  0
 31 32  1  0  0  0  0
 31 33  1  0  0  0  0
 34 35  1  0  0  0  0
 34 53  1  0  0  0  0
 35 36  1  0  0  0  0
 35 52  2  0  0  0  0
 36 37  1  0  0  0  0
 36 51  1  0  0  0  0
 36 73  1  0  0  0  0
 37 38  1  0  0  0  0
 38 39  1  0  0  0  0
 39 40  1  0  0  0  0
 39 50  1  0  0  0  0
 40 41  1  0  0  0  0
 40 49  2  0  0  0  0
 41 42  1  0  0  0  0
 42 43  1  0  0  0  0
 43 44  1  0  0  0  0
 43 47  1  0  0  0  0
 43 48  1  0  0  0  0
 44 45  1  0  0  0  0
 44 46  1  0  0  0  0
 50 51  1  0  0  0  0
 55 56  1  0  0  0  0
 56 57  1  0  0  0  0
 56 61  1  0  0  0  0
 57 58  1  0  0  0  0
 58 59  1  0  0  0  0
 58 71  1  0  0  0  0
 59 60  1  0  0  0  0
 60 61  1  0  0  0  0
 63 64  1  0  0  0  0
 64 65  1  0  0  0  0
 67 68  4  0  0  0  0
 67 72  4  0  0  0  0
 68 69  4  0  0  0  0
 69 70  4  0  0  0  0
 70 71  4  0  0  0  0
 71 72  4  0  0  0  0
M  END
$$$$
