mol_ETKDG0_317
  PyMOL3.1          3D                             0

 73 79  0  0  0  0  0  0  0  0999 V2000
   -0.3177   -5.3153    1.8144 C   0  0  0  0  0  0  0  0  0  0  0  0
    0.6361   -4.4078    1.1424 C   0  0  0  0  0  0  0  0  0  0  0  0
    1.7926   -4.0727    1.8930 O   0  0  0  0  0  0  0  0  0  0  0  0
    1.6565   -3.1572    2.9471 C   0  0  0  0  0  0  0  0  0  0  0  0
    1.0884   -4.9288   -0.1582 C   0  0  0  0  0  0  0  0  0  0  0  0
    2.0616   -5.8181   -0.1557 N   0  0  0  0  0  0  0  0  0  0  0  0
    2.5020   -6.3771   -1.3005 C   0  0  0  0  0  0  0  0  0  0  0  0
    1.9407   -6.0558   -2.5371 C   0  0  0  0  0  0  0  0  0  0  0  0
    0.8964   -5.1262   -2.5665 C   0  0  0  0  0  0  0  0  0  0  0  0
    0.4793   -4.5484   -1.3654 C   0  0  0  0  0  0  0  0  0  0  0  0
   -0.5589   -3.5469   -1.3988 C   0  0  0  0  0  0  0  0  0  0  0  0
   -1.8770   -3.7974   -1.6748 N   0  0  0  0  0  0  0  0  0  0  0  0
   -2.5287   -5.1022   -2.0372 C   0  0  0  0  0  0  0  0  0  0  0  0
   -2.9686   -5.9089   -0.8777 C   0  0  0  0  0  0  0  0  0  0  0  0
   -0.3673   -2.1723   -1.1064 C   0  0  0  0  0  0  0  0  0  0  0  0
    0.8855   -1.4186   -0.7108 C   0  0  0  0  0  0  0  0  0  0  0  0
    1.7480   -0.8748   -1.9351 C   0  0  0  0  0  0  0  0  0  0  0  0
    3.0939   -0.4010   -1.3879 C   0  0  0  0  0  0  0  0  0  0  0  0
    2.0801   -1.9290   -2.9167 C   0  0  0  0  0  0  0  0  0  0  0  0
    1.0428    0.2455   -2.6641 C   0  0  0  0  0  0  0  0  0  0  0  0
    1.1001    1.5877   -2.0193 O   0  0  0  0  0  0  0  0  0  0  0  0
    1.3721    2.8001   -2.7159 C   0  0  0  0  0  0  0  0  0  0  0  0
    1.3208    4.0967   -1.9396 C   0  0  0  0  0  0  0  0  0  0  0  0
    1.2713    3.8245   -0.5365 N   0  0  0  0  0  0  0  0  0  0  0  0
    1.2210    4.9173    0.3151 N   0  0  0  0  0  0  0  0  0  0  0  0
    0.2122    5.0421    1.2221 C   0  0  0  0  0  0  0  0  0  0  0  0
   -0.8466    3.9775    1.2615 C   0  0  0  0  0  0  0  0  0  0  0  0
   -1.2943    3.7242    2.6131 N   0  0  0  0  0  0  0  0  0  0  0  0
   -0.9090    2.6623    3.3417 C   0  0  0  0  0  0  0  0  0  0  0  0
   -1.6014    2.4985    4.6541 C   0  0  0  0  0  0  0  0  0  0  0  0
   -0.6959    2.8516    5.8816 C   0  0  0  0  0  0  0  0  0  0  0  0
   -1.4532    2.8955    7.1624 C   0  0  0  0  0  0  0  0  0  0  0  0
    0.1273    4.0813    5.6586 C   0  0  0  0  0  0  0  0  0  0  0  0
   -2.1050    1.1198    4.6998 N   0  0  0  0  0  0  0  0  0  0  0  0
   -3.3083    0.8416    4.0883 C   0  0  0  0  0  0  0  0  0  0  0  0
   -3.9153   -0.5362    3.9894 C   0  0  0  0  0  0  0  0  0  0  0  0
   -3.1048   -1.3226    2.9915 C   0  0  0  0  0  0  0  0  0  0  0  0
   -3.6104   -2.7067    2.8713 C   0  0  0  0  0  0  0  0  0  0  0  0
   -5.0275   -2.6855    2.5024 N   0  0  0  0  0  0  0  0  0  0  0  0
   -5.4536   -3.4538    1.4676 C   0  0  0  0  0  0  0  0  0  0  0  0
   -6.5963   -3.1853    0.7159 C   0  0  0  0  0  0  0  0  0  0  0  0
   -7.5080   -3.1448   -0.0043 C   0  0  0  0  0  0  0  0  0  0  0  0
   -8.6403   -2.9825   -0.8137 C   0  0  0  0  0  0  0  0  0  0  0  0
   -9.2253   -4.2523   -1.0805 N   0  0  0  0  0  0  0  0  0  0  0  0
  -10.6019   -4.4845   -1.0101 C   0  0  0  0  0  0  0  0  0  0  0  0
   -8.4265   -5.3039   -1.5968 C   0  0  0  0  0  0  0  0  0  0  0  0
   -9.5958   -2.0514   -0.1029 C   0  0  0  0  0  0  0  0  0  0  0  0
   -8.2855   -2.3235   -2.1416 C   0  0  0  0  0  0  0  0  0  0  0  0
   -4.7777   -4.4111    1.1419 O   0  0  0  0  0  0  0  0  0  0  0  0
   -5.8988   -1.8500    3.2778 C   0  0  0  0  0  0  0  0  0  0  0  0
   -5.3761   -0.5036    3.5011 C   0  0  0  0  0  0  0  0  0  0  0  0
   -3.9196    1.7896    3.5649 O   0  0  0  0  0  0  0  0  0  0  0  0
   -1.2536    0.0719    5.2839 C   0  0  0  0  0  0  0  0  0  0  0  0
   -0.1374    1.8434    2.8874 O   0  0  0  0  0  0  0  0  0  0  0  0
   -2.0926    4.4307    0.3844 C   0  0  0  0  0  0  0  0  0  0  0  0
   -3.2414    3.3840    0.2890 C   0  0  0  0  0  0  0  0  0  0  0  0
   -2.7882    2.3261   -0.6527 C   0  0  0  0  0  0  0  0  0  0  0  0
   -3.8019    1.3243   -0.8781 N   0  0  0  0  0  0  0  0  0  0  0  0
   -5.1043    1.8505   -1.3038 C   0  0  0  0  0  0  0  0  0  0  0  0
   -5.5153    3.0450   -0.4251 C   0  0  0  0  0  0  0  0  0  0  0  0
   -4.4221    4.0257   -0.2751 O   0  0  0  0  0  0  0  0  0  0  0  0
    0.1316    6.0191    1.9770 O   0  0  0  0  0  0  0  0  0  0  0  0
    2.3342    5.8594    0.2047 C   0  0  0  0  0  0  0  0  0  0  0  0
    2.5204    6.2465   -1.2813 C   0  0  0  0  0  0  0  0  0  0  0  0
    2.5434    5.0251   -2.2061 C   0  0  0  0  0  0  0  0  0  0  0  0
    1.6493    2.8867   -3.9285 O   0  0  0  0  0  0  0  0  0  0  0  0
   -1.6552   -1.6270   -1.2180 C   0  0  0  0  0  0  0  0  0  0  0  0
   -2.5481   -2.6456   -1.5476 C   0  0  0  0  0  0  0  0  0  0  0  0
   -3.9404   -2.3310   -1.6843 C   0  0  0  0  0  0  0  0  0  0  0  0
   -4.3322   -0.9970   -1.4492 C   0  0  0  0  0  0  0  0  0  0  0  0
   -3.4079    0.0001   -1.1133 C   0  0  0  0  0  0  0  0  0  0  0  0
   -2.0479   -0.3156   -1.0079 C   0  0  0  0  0  0  0  0  0  0  0  0
   -3.9346   -1.1479    5.2323 F   0  0  0  0  0  0  0  0  0  0  0  0
  1  2  1  0  0  0  0
  2  3  1  0  0  0  0
  2  5  1  0  0  0  0
  3  4  1  0  0  0  0
  5  6  4  0  0  0  0
  5 10  4  0  0  0  0
  6  7  4  0  0  0  0
  7  8  4  0  0  0  0
  8  9  4  0  0  0  0
  9 10  4  0  0  0  0
 10 11  1  0  0  0  0
 11 12  4  0  0  0  0
 11 15  4  0  0  0  0
 12 13  1  0  0  0  0
 12 68  4  0  0  0  0
 13 14  1  0  0  0  0
 15 16  1  0  0  0  0
 15 67  4  0  0  0  0
 16 17  1  0  0  0  0
 17 18  1  0  0  0  0
 17 19  1  0  0  0  0
 17 20  1  0  0  0  0
 20 21  1  0  0  0  0
 21 22  1  0  0  0  0
 22 23  1  0  0  0  0
 22 66  2  0  0  0  0
 23 24  1  0  0  0  0
 23 65  1  0  0  0  0
 24 25  1  0  0  0  0
 25 26  1  0  0  0  0
 25 63  1  0  0  0  0
 26 27  1  0  0  0  0
 26 62  2  0  0  0  0
 27 28  1  0  0  0  0
 27 55  1  0  0  0  0
 28 29  1  0  0  0  0
 29 30  1  0  0  0  0
 29 54  2  0  0  0  0
 30 31  1  0  0  0  0
 30 34  1  0  0  0  0
 31 32  1  0  0  0  0
 31 33  1  0  0  0  0
 34 35  1  0  0  0  0
 34 53  1  0  0  0  0
 35 36  1  0  0  0  0
 35 52  2  0  0  0  0
 36 37  1  0  0  0  0
 36 51  1  0  0  0  0
 36 73  1  0  0  0  0
 37 38  1  0  0  0  0
 38 39  1  0  0  0  0
 39 40  1  0  0  0  0
 39 50  1  0  0  0  0
 40 41  1  0  0  0  0
 40 49  2  0  0  0  0
 41 42  1  0  0  0  0
 42 43  1  0  0  0  0
 43 44  1  0  0  0  0
 43 47  1  0  0  0  0
 43 48  1  0  0  0  0
 44 45  1  0  0  0  0
 44 46  1  0  0  0  0
 50 51  1  0  0  0  0
 55 56  1  0  0  0  0
 56 57  1  0  0  0  0
 56 61  1  0  0  0  0
 57 58  1  0  0  0  0
 58 59  1  0  0  0  0
 58 71  1  0  0  0  0
 59 60  1  0  0  0  0
 60 61  1  0  0  0  0
 63 64  1  0  0  0  0
 64 65  1  0  0  0  0
 67 68  4  0  0  0  0
 67 72  4  0  0  0  0
 68 69  4  0  0  0  0
 69 70  4  0  0  0  0
 70 71  4  0  0  0  0
 71 72  4  0  0  0  0
M  END
$$$$
