mol_ETKDG3_179
  PyMOL3.1          3D                             0

 73 79  0  0  0  0  0  0  0  0999 V2000
   -0.9510    6.1297   -1.4074 C   0  0  0  0  0  0  0  0  0  0  0  0
   -1.4864    5.0275   -0.5803 C   0  0  0  0  0  0  0  0  0  0  0  0
   -2.7370    4.5378   -0.9413 O   0  0  0  0  0  0  0  0  0  0  0  0
   -2.8205    3.8402   -2.1672 C   0  0  0  0  0  0  0  0  0  0  0  0
   -1.5192    5.3419    0.8542 C   0  0  0  0  0  0  0  0  0  0  0  0
   -2.2600    6.3653    1.2534 N   0  0  0  0  0  0  0  0  0  0  0  0
   -2.2720    6.7571    2.5445 C   0  0  0  0  0  0  0  0  0  0  0  0
   -1.4957    6.1148    3.5082 C   0  0  0  0  0  0  0  0  0  0  0  0
   -0.7040    5.0366    3.1002 C   0  0  0  0  0  0  0  0  0  0  0  0
   -0.7575    4.6364    1.7600 C   0  0  0  0  0  0  0  0  0  0  0  0
    0.0037    3.4824    1.3694 C   0  0  0  0  0  0  0  0  0  0  0  0
    1.2657    3.5617    0.9018 N   0  0  0  0  0  0  0  0  0  0  0  0
    2.0851    4.8015    0.6616 C   0  0  0  0  0  0  0  0  0  0  0  0
    3.1030    5.0051    1.6971 C   0  0  0  0  0  0  0  0  0  0  0  0
   -0.4619    2.1428    1.3428 C   0  0  0  0  0  0  0  0  0  0  0  0
   -1.8262    1.5590    1.5620 C   0  0  0  0  0  0  0  0  0  0  0  0
   -2.2281    1.0934    3.0087 C   0  0  0  0  0  0  0  0  0  0  0  0
   -2.4156    2.2489    3.9637 C   0  0  0  0  0  0  0  0  0  0  0  0
   -3.5867    0.4666    2.8937 C   0  0  0  0  0  0  0  0  0  0  0  0
   -1.2074    0.1026    3.6029 C   0  0  0  0  0  0  0  0  0  0  0  0
   -1.5166   -1.3381    3.3002 O   0  0  0  0  0  0  0  0  0  0  0  0
   -1.9533   -2.2964    4.2645 C   0  0  0  0  0  0  0  0  0  0  0  0
   -2.1205   -3.7428    3.8265 C   0  0  0  0  0  0  0  0  0  0  0  0
   -2.5609   -3.8097    2.4617 N   0  0  0  0  0  0  0  0  0  0  0  0
   -2.8109   -5.0775    1.9358 N   0  0  0  0  0  0  0  0  0  0  0  0
   -2.2200   -5.5091    0.7876 C   0  0  0  0  0  0  0  0  0  0  0  0
   -1.2961   -4.5739    0.0792 C   0  0  0  0  0  0  0  0  0  0  0  0
   -1.4349   -4.6423   -1.3557 N   0  0  0  0  0  0  0  0  0  0  0  0
   -2.0757   -3.7096   -2.0697 C   0  0  0  0  0  0  0  0  0  0  0  0
   -1.9846   -3.8413   -3.5482 C   0  0  0  0  0  0  0  0  0  0  0  0
   -3.1966   -4.5181   -4.2345 C   0  0  0  0  0  0  0  0  0  0  0  0
   -4.0975   -5.2748   -3.3568 C   0  0  0  0  0  0  0  0  0  0  0  0
   -2.8000   -5.2326   -5.4938 C   0  0  0  0  0  0  0  0  0  0  0  0
   -1.7254   -2.5019   -4.0774 N   0  0  0  0  0  0  0  0  0  0  0  0
   -0.4376   -2.0385   -4.0775 C   0  0  0  0  0  0  0  0  0  0  0  0
   -0.0026   -0.6755   -4.5476 C   0  0  0  0  0  0  0  0  0  0  0  0
   -0.0179    0.2397   -3.3477 C   0  0  0  0  0  0  0  0  0  0  0  0
    0.4045    1.6242   -3.7295 C   0  0  0  0  0  0  0  0  0  0  0  0
    1.7235    1.5445   -4.3650 N   0  0  0  0  0  0  0  0  0  0  0  0
    2.7762    2.2524   -3.8703 C   0  0  0  0  0  0  0  0  0  0  0  0
    4.0798    1.7938   -3.9704 C   0  0  0  0  0  0  0  0  0  0  0  0
    5.1946    1.5191   -4.0115 C   0  0  0  0  0  0  0  0  0  0  0  0
    6.4840    0.9591   -4.1229 C   0  0  0  0  0  0  0  0  0  0  0  0
    6.7613    0.6549   -5.4758 N   0  0  0  0  0  0  0  0  0  0  0  0
    7.6384    1.4314   -6.2495 C   0  0  0  0  0  0  0  0  0  0  0  0
    6.1961   -0.4782   -6.0895 C   0  0  0  0  0  0  0  0  0  0  0  0
    7.5065    1.9191   -3.5712 C   0  0  0  0  0  0  0  0  0  0  0  0
    6.5795   -0.3115   -3.2905 C   0  0  0  0  0  0  0  0  0  0  0  0
    2.5720    3.2923   -3.2547 O   0  0  0  0  0  0  0  0  0  0  0  0
    1.8402    0.6668   -5.5006 C   0  0  0  0  0  0  0  0  0  0  0  0
    1.3999   -0.7101   -5.1677 C   0  0  0  0  0  0  0  0  0  0  0  0
    0.4376   -2.8028   -3.6244 O   0  0  0  0  0  0  0  0  0  0  0  0
   -2.8666   -1.6671   -4.4713 C   0  0  0  0  0  0  0  0  0  0  0  0
   -2.5907   -2.7533   -1.5175 O   0  0  0  0  0  0  0  0  0  0  0  0
    0.1916   -4.9089    0.4568 C   0  0  0  0  0  0  0  0  0  0  0  0
    1.2241   -3.9705   -0.2017 C   0  0  0  0  0  0  0  0  0  0  0  0
    1.2035   -2.6979    0.5508 C   0  0  0  0  0  0  0  0  0  0  0  0
    2.2122   -1.7883    0.0681 N   0  0  0  0  0  0  0  0  0  0  0  0
    3.5653   -2.3519   -0.0153 C   0  0  0  0  0  0  0  0  0  0  0  0
    3.5471   -3.7248   -0.6986 C   0  0  0  0  0  0  0  0  0  0  0  0
    2.5226   -4.5932   -0.1102 O   0  0  0  0  0  0  0  0  0  0  0  0
   -2.3876   -6.6548    0.3431 O   0  0  0  0  0  0  0  0  0  0  0  0
   -3.7975   -5.8781    2.6537 C   0  0  0  0  0  0  0  0  0  0  0  0
   -3.4245   -5.9043    4.1447 C   0  0  0  0  0  0  0  0  0  0  0  0
   -3.1647   -4.5031    4.6949 C   0  0  0  0  0  0  0  0  0  0  0  0
   -2.1990   -2.0152    5.4592 O   0  0  0  0  0  0  0  0  0  0  0  0
    0.6604    1.4180    0.9183 C   0  0  0  0  0  0  0  0  0  0  0  0
    1.6817    2.3216    0.6381 C   0  0  0  0  0  0  0  0  0  0  0  0
    2.9230    1.8397    0.1178 C   0  0  0  0  0  0  0  0  0  0  0  0
    3.0482    0.4734   -0.0693 C   0  0  0  0  0  0  0  0  0  0  0  0
    2.0268   -0.4180    0.2497 C   0  0  0  0  0  0  0  0  0  0  0  0
    0.7940    0.0538    0.7283 C   0  0  0  0  0  0  0  0  0  0  0  0
   -0.8105   -0.1911   -5.5385 F   0  0  0  0  0  0  0  0  0  0  0  0
  1  2  1  0  0  0  0
  2  3  1  0  0  0  0
  2  5  1  0  0  0  0
  3  4  1  0  0  0  0
  5  6  4  0  0  0  0
  5 10  4  0  0  0  0
  6  7  4  0  0  0  0
  7  8  4  0  0  0  0
  8  9  4  0  0  0  0
  9 10  4  0  0  0  0
 10 11  1  0  0  0  0
 11 12  4  0  0  0  0
 11 15  4  0  0  0  0
 12 13  1  0  0  0  0
 12 68  4  0  0  0  0
 13 14  1  0  0  0  0
 15 16  1  0  0  0  0
 15 67  4  0  0  0  0
 16 17  1  0  0  0  0
 17 18  1  0  0  0  0
 17 19  1  0  0  0  0
 17 20  1  0  0  0  0
 20 21  1  0  0  0  0
 21 22  1  0  0  0  0
 22 23  1  0  0  0  0
 22 66  2  0  0  0  0
 23 24  1  0  0  0  0
 23 65  1  0  0  0  0
 24 25  1  0  0  0  0
 25 26  1  0  0  0  0
 25 63  1  0  0  0  0
 26 27  1  0  0  0  0
 26 62  2  0  0  0  0
 27 28  1  0  0  0  0
 27 55  1  0  0  0  0
 28 29  1  0  0  0  0
 29 30  1  0  0  0  0
 29 54  2  0  0  0  0
 30 31  1  0  0  0  0
 30 34  1  0  0  0  0
 31 32  1  0  0  0  0
 31 33  1  0  0  0  0
 34 35  1  0  0  0  0
 34 53  1  0  0  0  0
 35 36  1  0  0  0  0
 35 52  2  0  0  0  0
 36 37  1  0  0  0  0
 36 51  1  0  0  0  0
 36 73  1  0  0  0  0
 37 38  1  0  0  0  0
 38 39  1  0  0  0  0
 39 40  1  0  0  0  0
 39 50  1  0  0  0  0
 40 41  1  0  0  0  0
 40 49  2  0  0  0  0
 41 42  1  0  0  0  0
 42 43  1  0  0  0  0
 43 44  1  0  0  0  0
 43 47  1  0  0  0  0
 43 48  1  0  0  0  0
 44 45  1  0  0  0  0
 44 46  1  0  0  0  0
 50 51  1  0  0  0  0
 55 56  1  0  0  0  0
 56 57  1  0  0  0  0
 56 61  1  0  0  0  0
 57 58  1  0  0  0  0
 58 59  1  0  0  0  0
 58 71  1  0  0  0  0
 59 60  1  0  0  0  0
 60 61  1  0  0  0  0
 63 64  1  0  0  0  0
 64 65  1  0  0  0  0
 67 68  4  0  0  0  0
 67 72  4  0  0  0  0
 68 69  4  0  0  0  0
 69 70  4  0  0  0  0
 70 71  4  0  0  0  0
 71 72  4  0  0  0  0
M  END
$$$$
