mol_ETKDG4_222
  PyMOL3.1          3D                             0

 73 79  0  0  0  0  0  0  0  0999 V2000
    2.6102    5.4804    1.5421 C   0  0  0  0  0  0  0  0  0  0  0  0
    2.0382    4.7263    0.4022 C   0  0  0  0  0  0  0  0  0  0  0  0
    2.9789    4.1786   -0.4930 O   0  0  0  0  0  0  0  0  0  0  0  0
    3.7619    3.0928   -0.0288 C   0  0  0  0  0  0  0  0  0  0  0  0
    1.0791    5.5282   -0.3921 C   0  0  0  0  0  0  0  0  0  0  0  0
    1.5556    6.5328   -1.1105 N   0  0  0  0  0  0  0  0  0  0  0  0
    0.7346    7.3547   -1.8020 C   0  0  0  0  0  0  0  0  0  0  0  0
   -0.6579    7.1879   -1.7842 C   0  0  0  0  0  0  0  0  0  0  0  0
   -1.1841    6.1319   -1.0244 C   0  0  0  0  0  0  0  0  0  0  0  0
   -0.2922    5.2764   -0.3498 C   0  0  0  0  0  0  0  0  0  0  0  0
   -0.8277    4.1534    0.3936 C   0  0  0  0  0  0  0  0  0  0  0  0
   -1.2388    4.2473    1.6849 N   0  0  0  0  0  0  0  0  0  0  0  0
   -1.2166    5.4654    2.5739 C   0  0  0  0  0  0  0  0  0  0  0  0
   -2.5404    6.0410    2.8063 C   0  0  0  0  0  0  0  0  0  0  0  0
   -0.9246    2.8024   -0.0767 C   0  0  0  0  0  0  0  0  0  0  0  0
   -0.5374    2.1681   -1.4099 C   0  0  0  0  0  0  0  0  0  0  0  0
   -1.7140    2.1014   -2.5076 C   0  0  0  0  0  0  0  0  0  0  0  0
   -1.0759    1.8101   -3.8633 C   0  0  0  0  0  0  0  0  0  0  0  0
   -2.3980    3.4026   -2.6642 C   0  0  0  0  0  0  0  0  0  0  0  0
   -2.7852    1.0410   -2.1911 C   0  0  0  0  0  0  0  0  0  0  0  0
   -2.4542   -0.4051   -2.4333 O   0  0  0  0  0  0  0  0  0  0  0  0
   -3.2776   -1.3128   -3.1880 C   0  0  0  0  0  0  0  0  0  0  0  0
   -2.9340   -2.7952   -3.1890 C   0  0  0  0  0  0  0  0  0  0  0  0
   -1.5816   -2.9909   -2.7743 N   0  0  0  0  0  0  0  0  0  0  0  0
   -1.1136   -4.3048   -2.7409 N   0  0  0  0  0  0  0  0  0  0  0  0
   -0.5901   -4.8440   -1.6015 C   0  0  0  0  0  0  0  0  0  0  0  0
   -0.4976   -3.9864   -0.3762 C   0  0  0  0  0  0  0  0  0  0  0  0
    0.7435   -4.2293    0.3298 N   0  0  0  0  0  0  0  0  0  0  0  0
    1.8418   -3.4736    0.1866 C   0  0  0  0  0  0  0  0  0  0  0  0
    2.9724   -3.7707    1.1149 C   0  0  0  0  0  0  0  0  0  0  0  0
    4.1691   -4.5398    0.4796 C   0  0  0  0  0  0  0  0  0  0  0  0
    5.0253   -5.2326    1.4868 C   0  0  0  0  0  0  0  0  0  0  0  0
    3.8157   -5.3866   -0.6902 C   0  0  0  0  0  0  0  0  0  0  0  0
    3.3777   -2.4983    1.7238 N   0  0  0  0  0  0  0  0  0  0  0  0
    2.6843   -2.0517    2.8263 C   0  0  0  0  0  0  0  0  0  0  0  0
    2.9067   -0.7307    3.5386 C   0  0  0  0  0  0  0  0  0  0  0  0
    2.4815   -0.7692    5.0128 C   0  0  0  0  0  0  0  0  0  0  0  0
    2.5785    0.5944    5.6502 C   0  0  0  0  0  0  0  0  0  0  0  0
    1.9008    1.6208    4.8137 N   0  0  0  0  0  0  0  0  0  0  0  0
    0.9681    2.5214    5.2680 C   0  0  0  0  0  0  0  0  0  0  0  0
   -0.0146    2.2558    6.2156 C   0  0  0  0  0  0  0  0  0  0  0  0
   -0.9200    2.2001    6.9764 C   0  0  0  0  0  0  0  0  0  0  0  0
   -1.9872    1.9360    7.8707 C   0  0  0  0  0  0  0  0  0  0  0  0
   -1.7000    2.1472    9.2401 N   0  0  0  0  0  0  0  0  0  0  0  0
   -0.4519    2.5719    9.6861 C   0  0  0  0  0  0  0  0  0  0  0  0
   -2.6833    1.9602   10.2264 C   0  0  0  0  0  0  0  0  0  0  0  0
   -3.1628    2.8266    7.4828 C   0  0  0  0  0  0  0  0  0  0  0  0
   -2.4049    0.4806    7.6805 C   0  0  0  0  0  0  0  0  0  0  0  0
    0.9180    3.6361    4.7231 O   0  0  0  0  0  0  0  0  0  0  0  0
    2.2558    1.6528    3.4327 C   0  0  0  0  0  0  0  0  0  0  0  0
    2.0708    0.3103    2.8039 C   0  0  0  0  0  0  0  0  0  0  0  0
    1.7681   -2.7803    3.2539 O   0  0  0  0  0  0  0  0  0  0  0  0
    4.4139   -1.6905    1.0507 C   0  0  0  0  0  0  0  0  0  0  0  0
    1.8326   -2.5211   -0.5721 O   0  0  0  0  0  0  0  0  0  0  0  0
   -1.7198   -4.2384    0.5912 C   0  0  0  0  0  0  0  0  0  0  0  0
   -1.7346   -3.3264    1.8574 C   0  0  0  0  0  0  0  0  0  0  0  0
   -2.2170   -1.9801    1.4425 C   0  0  0  0  0  0  0  0  0  0  0  0
   -2.3683   -1.0821    2.5710 N   0  0  0  0  0  0  0  0  0  0  0  0
   -3.1540   -1.6054    3.6918 C   0  0  0  0  0  0  0  0  0  0  0  0
   -2.7427   -3.0502    4.0270 C   0  0  0  0  0  0  0  0  0  0  0  0
   -2.6591   -3.8918    2.8211 O   0  0  0  0  0  0  0  0  0  0  0  0
   -0.2144   -6.0288   -1.5462 O   0  0  0  0  0  0  0  0  0  0  0  0
   -1.1690   -5.0258   -4.0143 C   0  0  0  0  0  0  0  0  0  0  0  0
   -2.5955   -4.9182   -4.5852 C   0  0  0  0  0  0  0  0  0  0  0  0
   -3.1135   -3.4702   -4.5922 C   0  0  0  0  0  0  0  0  0  0  0  0
   -4.2602   -0.9477   -3.8655 O   0  0  0  0  0  0  0  0  0  0  0  0
   -1.4395    2.1116    1.0365 C   0  0  0  0  0  0  0  0  0  0  0  0
   -1.6272    3.0246    2.0824 C   0  0  0  0  0  0  0  0  0  0  0  0
   -2.1349    2.5590    3.3345 C   0  0  0  0  0  0  0  0  0  0  0  0
   -2.3609    1.1869    3.4665 C   0  0  0  0  0  0  0  0  0  0  0  0
   -2.1445    0.2871    2.4118 C   0  0  0  0  0  0  0  0  0  0  0  0
   -1.6841    0.7536    1.1724 C   0  0  0  0  0  0  0  0  0  0  0  0
    4.2325   -0.3685    3.5311 F   0  0  0  0  0  0  0  0  0  0  0  0
  1  2  1  0  0  0  0
  2  3  1  0  0  0  0
  2  5  1  0  0  0  0
  3  4  1  0  0  0  0
  5  6  4  0  0  0  0
  5 10  4  0  0  0  0
  6  7  4  0  0  0  0
  7  8  4  0  0  0  0
  8  9  4  0  0  0  0
  9 10  4  0  0  0  0
 10 11  1  0  0  0  0
 11 12  4  0  0  0  0
 11 15  4  0  0  0  0
 12 13  1  0  0  0  0
 12 68  4  0  0  0  0
 13 14  1  0  0  0  0
 15 16  1  0  0  0  0
 15 67  4  0  0  0  0
 16 17  1  0  0  0  0
 17 18  1  0  0  0  0
 17 19  1  0  0  0  0
 17 20  1  0  0  0  0
 20 21  1  0  0  0  0
 21 22  1  0  0  0  0
 22 23  1  0  0  0  0
 22 66  2  0  0  0  0
 23 24  1  0  0  0  0
 23 65  1  0  0  0  0
 24 25  1  0  0  0  0
 25 26  1  0  0  0  0
 25 63  1  0  0  0  0
 26 27  1  0  0  0  0
 26 62  2  0  0  0  0
 27 28  1  0  0  0  0
 27 55  1  0  0  0  0
 28 29  1  0  0  0  0
 29 30  1  0  0  0  0
 29 54  2  0  0  0  0
 30 31  1  0  0  0  0
 30 34  1  0  0  0  0
 31 32  1  0  0  0  0
 31 33  1  0  0  0  0
 34 35  1  0  0  0  0
 34 53  1  0  0  0  0
 35 36  1  0  0  0  0
 35 52  2  0  0  0  0
 36 37  1  0  0  0  0
 36 51  1  0  0  0  0
 36 73  1  0  0  0  0
 37 38  1  0  0  0  0
 38 39  1  0  0  0  0
 39 40  1  0  0  0  0
 39 50  1  0  0  0  0
 40 41  1  0  0  0  0
 40 49  2  0  0  0  0
 41 42  1  0  0  0  0
 42 43  1  0  0  0  0
 43 44  1  0  0  0  0
 43 47  1  0  0  0  0
 43 48  1  0  0  0  0
 44 45  1  0  0  0  0
 44 46  1  0  0  0  0
 50 51  1  0  0  0  0
 55 56  1  0  0  0  0
 56 57  1  0  0  0  0
 56 61  1  0  0  0  0
 57 58  1  0  0  0  0
 58 59  1  0  0  0  0
 58 71  1  0  0  0  0
 59 60  1  0  0  0  0
 60 61  1  0  0  0  0
 63 64  1  0  0  0  0
 64 65  1  0  0  0  0
 67 68  4  0  0  0  0
 67 72  4  0  0  0  0
 68 69  4  0  0  0  0
 69 70  4  0  0  0  0
 70 71  4  0  0  0  0
 71 72  4  0  0  0  0
M  END
$$$$
