mol_ETKDG2_118
  PyMOL3.1          3D                             0

 73 79  0  0  0  0  0  0  0  0999 V2000
   -1.5980    5.3569    4.2973 C   0  0  0  0  0  0  0  0  0  0  0  0
   -1.2743    5.4549    2.8567 C   0  0  0  0  0  0  0  0  0  0  0  0
   -2.2739    6.0643    2.0651 O   0  0  0  0  0  0  0  0  0  0  0  0
   -3.5365    5.4414    2.0058 C   0  0  0  0  0  0  0  0  0  0  0  0
   -0.0117    6.1973    2.6142 C   0  0  0  0  0  0  0  0  0  0  0  0
   -0.0163    7.5015    2.8583 N   0  0  0  0  0  0  0  0  0  0  0  0
    1.1003    8.2449    2.7229 C   0  0  0  0  0  0  0  0  0  0  0  0
    2.3163    7.6739    2.3363 C   0  0  0  0  0  0  0  0  0  0  0  0
    2.3470    6.2973    2.0886 C   0  0  0  0  0  0  0  0  0  0  0  0
    1.1623    5.5631    2.1918 C   0  0  0  0  0  0  0  0  0  0  0  0
    1.2154    4.1561    1.8740 C   0  0  0  0  0  0  0  0  0  0  0  0
    1.4146    3.1979    2.8113 N   0  0  0  0  0  0  0  0  0  0  0  0
    1.5757    3.3811    4.2978 C   0  0  0  0  0  0  0  0  0  0  0  0
    2.9334    3.1359    4.7723 C   0  0  0  0  0  0  0  0  0  0  0  0
    1.0100    3.5696    0.5874 C   0  0  0  0  0  0  0  0  0  0  0  0
    0.6227    4.1681   -0.7440 C   0  0  0  0  0  0  0  0  0  0  0  0
    1.7951    4.6813   -1.6954 C   0  0  0  0  0  0  0  0  0  0  0  0
    1.1539    5.1108   -2.9994 C   0  0  0  0  0  0  0  0  0  0  0  0
    2.4240    5.9228   -1.1805 C   0  0  0  0  0  0  0  0  0  0  0  0
    2.8718    3.6489   -1.9899 C   0  0  0  0  0  0  0  0  0  0  0  0
    2.6094    2.7062   -3.1440 O   0  0  0  0  0  0  0  0  0  0  0  0
    3.6221    2.1538   -3.9917 C   0  0  0  0  0  0  0  0  0  0  0  0
    3.2064    1.1975   -5.1112 C   0  0  0  0  0  0  0  0  0  0  0  0
    1.7860    1.2704   -5.3085 N   0  0  0  0  0  0  0  0  0  0  0  0
    1.2218    0.5128   -6.3392 N   0  0  0  0  0  0  0  0  0  0  0  0
    0.2036   -0.3695   -6.0958 C   0  0  0  0  0  0  0  0  0  0  0  0
   -0.2244   -0.5820   -4.6724 C   0  0  0  0  0  0  0  0  0  0  0  0
   -1.6511   -0.8102   -4.5394 N   0  0  0  0  0  0  0  0  0  0  0  0
   -2.5171    0.1236   -4.1050 C   0  0  0  0  0  0  0  0  0  0  0  0
   -3.9189   -0.3342   -3.8598 C   0  0  0  0  0  0  0  0  0  0  0  0
   -4.9598    0.0766   -4.9502 C   0  0  0  0  0  0  0  0  0  0  0  0
   -4.4241    0.1562   -6.3138 C   0  0  0  0  0  0  0  0  0  0  0  0
   -6.2257   -0.7389   -4.8517 C   0  0  0  0  0  0  0  0  0  0  0  0
   -4.2854    0.1837   -2.5382 N   0  0  0  0  0  0  0  0  0  0  0  0
   -3.8721   -0.5122   -1.4122 C   0  0  0  0  0  0  0  0  0  0  0  0
   -4.1141   -0.0663    0.0071 C   0  0  0  0  0  0  0  0  0  0  0  0
   -3.8933   -1.1661    1.0557 C   0  0  0  0  0  0  0  0  0  0  0  0
   -4.0549   -0.6242    2.4426 C   0  0  0  0  0  0  0  0  0  0  0  0
   -3.2266    0.5831    2.6404 N   0  0  0  0  0  0  0  0  0  0  0  0
   -2.3795    0.7479    3.7023 C   0  0  0  0  0  0  0  0  0  0  0  0
   -2.0512   -0.3178    4.4957 C   0  0  0  0  0  0  0  0  0  0  0  0
   -1.7436   -1.1503    5.2384 C   0  0  0  0  0  0  0  0  0  0  0  0
   -1.4934   -2.3504    5.9478 C   0  0  0  0  0  0  0  0  0  0  0  0
   -0.6189   -2.2462    7.0529 N   0  0  0  0  0  0  0  0  0  0  0  0
    0.0110   -1.0598    7.3892 C   0  0  0  0  0  0  0  0  0  0  0  0
   -0.3516   -3.3572    7.8710 C   0  0  0  0  0  0  0  0  0  0  0  0
   -0.9107   -3.3549    4.9691 C   0  0  0  0  0  0  0  0  0  0  0  0
   -2.8306   -2.8939    6.4452 C   0  0  0  0  0  0  0  0  0  0  0  0
   -1.8685    1.8529    3.9437 O   0  0  0  0  0  0  0  0  0  0  0  0
   -3.3307    1.6129    1.6543 C   0  0  0  0  0  0  0  0  0  0  0  0
   -3.1282    1.0614    0.2877 C   0  0  0  0  0  0  0  0  0  0  0  0
   -3.2349   -1.5634   -1.5902 O   0  0  0  0  0  0  0  0  0  0  0  0
   -4.9756    1.4836   -2.4495 C   0  0  0  0  0  0  0  0  0  0  0  0
   -2.1245    1.2362   -3.8035 O   0  0  0  0  0  0  0  0  0  0  0  0
    0.5530   -1.8237   -4.0895 C   0  0  0  0  0  0  0  0  0  0  0  0
    0.3213   -2.0919   -2.5828 C   0  0  0  0  0  0  0  0  0  0  0  0
    1.0869   -1.0495   -1.8308 C   0  0  0  0  0  0  0  0  0  0  0  0
    1.0503   -1.2794   -0.4109 N   0  0  0  0  0  0  0  0  0  0  0  0
    1.4342   -2.6388    0.0060 C   0  0  0  0  0  0  0  0  0  0  0  0
    0.7330   -3.6960   -0.8575 C   0  0  0  0  0  0  0  0  0  0  0  0
    0.8659   -3.4030   -2.2876 O   0  0  0  0  0  0  0  0  0  0  0  0
   -0.3241   -1.0299   -6.9981 O   0  0  0  0  0  0  0  0  0  0  0  0
    1.7473    0.7766   -7.6765 C   0  0  0  0  0  0  0  0  0  0  0  0
    3.2944    0.6975   -7.6243 C   0  0  0  0  0  0  0  0  0  0  0  0
    3.8892    1.5313   -6.4806 C   0  0  0  0  0  0  0  0  0  0  0  0
    4.8293    2.4063   -3.8765 O   0  0  0  0  0  0  0  0  0  0  0  0
    1.1520    2.1918    0.8300 C   0  0  0  0  0  0  0  0  0  0  0  0
    1.3919    2.0093    2.1943 C   0  0  0  0  0  0  0  0  0  0  0  0
    1.5206    0.6776    2.7114 C   0  0  0  0  0  0  0  0  0  0  0  0
    1.3988   -0.3764    1.8122 C   0  0  0  0  0  0  0  0  0  0  0  0
    1.1683   -0.1816    0.4536 C   0  0  0  0  0  0  0  0  0  0  0  0
    1.0281    1.1268   -0.0591 C   0  0  0  0  0  0  0  0  0  0  0  0
   -5.4209    0.3629    0.1625 F   0  0  0  0  0  0  0  0  0  0  0  0
  1  2  1  0  0  0  0
  2  3  1  0  0  0  0
  2  5  1  0  0  0  0
  3  4  1  0  0  0  0
  5  6  4  0  0  0  0
  5 10  4  0  0  0  0
  6  7  4  0  0  0  0
  7  8  4  0  0  0  0
  8  9  4  0  0  0  0
  9 10  4  0  0  0  0
 10 11  1  0  0  0  0
 11 12  4  0  0  0  0
 11 15  4  0  0  0  0
 12 13  1  0  0  0  0
 12 68  4  0  0  0  0
 13 14  1  0  0  0  0
 15 16  1  0  0  0  0
 15 67  4  0  0  0  0
 16 17  1  0  0  0  0
 17 18  1  0  0  0  0
 17 19  1  0  0  0  0
 17 20  1  0  0  0  0
 20 21  1  0  0  0  0
 21 22  1  0  0  0  0
 22 23  1  0  0  0  0
 22 66  2  0  0  0  0
 23 24  1  0  0  0  0
 23 65  1  0  0  0  0
 24 25  1  0  0  0  0
 25 26  1  0  0  0  0
 25 63  1  0  0  0  0
 26 27  1  0  0  0  0
 26 62  2  0  0  0  0
 27 28  1  0  0  0  0
 27 55  1  0  0  0  0
 28 29  1  0  0  0  0
 29 30  1  0  0  0  0
 29 54  2  0  0  0  0
 30 31  1  0  0  0  0
 30 34  1  0  0  0  0
 31 32  1  0  0  0  0
 31 33  1  0  0  0  0
 34 35  1  0  0  0  0
 34 53  1  0  0  0  0
 35 36  1  0  0  0  0
 35 52  2  0  0  0  0
 36 37  1  0  0  0  0
 36 51  1  0  0  0  0
 36 73  1  0  0  0  0
 37 38  1  0  0  0  0
 38 39  1  0  0  0  0
 39 40  1  0  0  0  0
 39 50  1  0  0  0  0
 40 41  1  0  0  0  0
 40 49  2  0  0  0  0
 41 42  1  0  0  0  0
 42 43  1  0  0  0  0
 43 44  1  0  0  0  0
 43 47  1  0  0  0  0
 43 48  1  0  0  0  0
 44 45  1  0  0  0  0
 44 46  1  0  0  0  0
 50 51  1  0  0  0  0
 55 56  1  0  0  0  0
 56 57  1  0  0  0  0
 56 61  1  0  0  0  0
 57 58  1  0  0  0  0
 58 59  1  0  0  0  0
 58 71  1  0  0  0  0
 59 60  1  0  0  0  0
 60 61  1  0  0  0  0
 63 64  1  0  0  0  0
 64 65  1  0  0  0  0
 67 68  4  0  0  0  0
 67 72  4  0  0  0  0
 68 69  4  0  0  0  0
 69 70  4  0  0  0  0
 70 71  4  0  0  0  0
 71 72  4  0  0  0  0
M  END
$$$$
