mol_ETKDG4_219
  PyMOL3.1          3D                             0

 73 79  0  0  0  0  0  0  0  0999 V2000
   -3.4472   -5.4273    1.5235 C   0  0  0  0  0  0  0  0  0  0  0  0
   -3.4851   -4.2187    0.6730 C   0  0  0  0  0  0  0  0  0  0  0  0
   -3.7059   -4.4358   -0.7028 O   0  0  0  0  0  0  0  0  0  0  0  0
   -2.6649   -5.0121   -1.4555 C   0  0  0  0  0  0  0  0  0  0  0  0
   -4.4807   -3.2206    1.1170 C   0  0  0  0  0  0  0  0  0  0  0  0
   -5.7674   -3.4908    0.9219 N   0  0  0  0  0  0  0  0  0  0  0  0
   -6.7353   -2.6454    1.3477 C   0  0  0  0  0  0  0  0  0  0  0  0
   -6.4254   -1.4553    2.0189 C   0  0  0  0  0  0  0  0  0  0  0  0
   -5.0714   -1.1565    2.2416 C   0  0  0  0  0  0  0  0  0  0  0  0
   -4.0953   -2.0454    1.7582 C   0  0  0  0  0  0  0  0  0  0  0  0
   -2.7067   -1.7012    1.9494 C   0  0  0  0  0  0  0  0  0  0  0  0
   -2.0213   -1.9963    3.0791 N   0  0  0  0  0  0  0  0  0  0  0  0
   -2.5178   -2.7395    4.2930 C   0  0  0  0  0  0  0  0  0  0  0  0
   -2.7980   -1.8619    5.4376 C   0  0  0  0  0  0  0  0  0  0  0  0
   -1.8512   -1.0889    0.9867 C   0  0  0  0  0  0  0  0  0  0  0  0
   -2.0787   -0.7134   -0.4535 C   0  0  0  0  0  0  0  0  0  0  0  0
   -2.6725    0.7269   -0.7726 C   0  0  0  0  0  0  0  0  0  0  0  0
   -4.1432    0.8458   -0.3887 C   0  0  0  0  0  0  0  0  0  0  0  0
   -2.6495    0.8747   -2.2738 C   0  0  0  0  0  0  0  0  0  0  0  0
   -1.8877    1.8851   -0.1250 C   0  0  0  0  0  0  0  0  0  0  0  0
   -0.7584    2.4233   -0.9797 O   0  0  0  0  0  0  0  0  0  0  0  0
   -0.5299    3.7987   -1.2841 C   0  0  0  0  0  0  0  0  0  0  0  0
    0.6418    4.1792   -2.1859 C   0  0  0  0  0  0  0  0  0  0  0  0
    1.1163    3.0313   -2.9067 N   0  0  0  0  0  0  0  0  0  0  0  0
    2.1697    3.1958   -3.8066 N   0  0  0  0  0  0  0  0  0  0  0  0
    3.2849    2.3934   -3.7446 C   0  0  0  0  0  0  0  0  0  0  0  0
    3.3596    1.3284   -2.6846 C   0  0  0  0  0  0  0  0  0  0  0  0
    3.9785    0.1064   -3.1712 N   0  0  0  0  0  0  0  0  0  0  0  0
    3.2860   -0.9733   -3.5835 C   0  0  0  0  0  0  0  0  0  0  0  0
    4.0831   -2.2039   -3.8946 C   0  0  0  0  0  0  0  0  0  0  0  0
    4.2699   -2.4574   -5.4317 C   0  0  0  0  0  0  0  0  0  0  0  0
    5.2075   -3.5887   -5.7142 C   0  0  0  0  0  0  0  0  0  0  0  0
    4.6542   -1.2076   -6.1795 C   0  0  0  0  0  0  0  0  0  0  0  0
    3.4106   -3.3189   -3.2011 N   0  0  0  0  0  0  0  0  0  0  0  0
    3.7171   -3.5543   -1.8671 C   0  0  0  0  0  0  0  0  0  0  0  0
    3.0434   -4.5985   -0.9940 C   0  0  0  0  0  0  0  0  0  0  0  0
    1.7023   -4.0353   -0.5602 C   0  0  0  0  0  0  0  0  0  0  0  0
    0.9401   -5.0341    0.2741 C   0  0  0  0  0  0  0  0  0  0  0  0
    1.7544   -5.3797    1.4476 N   0  0  0  0  0  0  0  0  0  0  0  0
    1.2343   -5.2140    2.7186 C   0  0  0  0  0  0  0  0  0  0  0  0
    2.0122   -5.0707    3.8734 C   0  0  0  0  0  0  0  0  0  0  0  0
    2.5074   -4.9713    4.9410 C   0  0  0  0  0  0  0  0  0  0  0  0
    3.2510   -4.8645    6.1371 C   0  0  0  0  0  0  0  0  0  0  0  0
    3.4121   -6.1558    6.7127 N   0  0  0  0  0  0  0  0  0  0  0  0
    4.5378   -6.9434    6.4313 C   0  0  0  0  0  0  0  0  0  0  0  0
    2.3581   -6.7626    7.4408 C   0  0  0  0  0  0  0  0  0  0  0  0
    2.5602   -3.9432    7.1293 C   0  0  0  0  0  0  0  0  0  0  0  0
    4.5958   -4.2259    5.8474 C   0  0  0  0  0  0  0  0  0  0  0  0
    0.0132   -5.1350    2.8695 O   0  0  0  0  0  0  0  0  0  0  0  0
    3.0914   -5.8653    1.1717 C   0  0  0  0  0  0  0  0  0  0  0  0
    3.8545   -4.9369    0.2785 C   0  0  0  0  0  0  0  0  0  0  0  0
    4.5936   -2.8370   -1.3463 O   0  0  0  0  0  0  0  0  0  0  0  0
    2.3408   -4.0577   -3.9007 C   0  0  0  0  0  0  0  0  0  0  0  0
    2.0657   -0.9525   -3.5807 O   0  0  0  0  0  0  0  0  0  0  0  0
    4.1914    1.8379   -1.4378 C   0  0  0  0  0  0  0  0  0  0  0  0
    4.2703    0.8132   -0.2683 C   0  0  0  0  0  0  0  0  0  0  0  0
    2.9595    0.8426    0.4410 C   0  0  0  0  0  0  0  0  0  0  0  0
    2.9448   -0.0137    1.6014 N   0  0  0  0  0  0  0  0  0  0  0  0
    4.0625    0.2158    2.5412 C   0  0  0  0  0  0  0  0  0  0  0  0
    5.4035    0.2966    1.7836 C   0  0  0  0  0  0  0  0  0  0  0  0
    5.3266    1.2207    0.6406 O   0  0  0  0  0  0  0  0  0  0  0  0
    4.2447    2.5524   -4.5136 O   0  0  0  0  0  0  0  0  0  0  0  0
    1.9664    4.2141   -4.8418 C   0  0  0  0  0  0  0  0  0  0  0  0
    1.4586    5.5238   -4.1959 C   0  0  0  0  0  0  0  0  0  0  0  0
    0.2857    5.2873   -3.2257 C   0  0  0  0  0  0  0  0  0  0  0  0
   -1.2435    4.7167   -0.8335 O   0  0  0  0  0  0  0  0  0  0  0  0
   -0.6206   -0.9853    1.6559 C   0  0  0  0  0  0  0  0  0  0  0  0
   -0.7624   -1.5520    2.9216 C   0  0  0  0  0  0  0  0  0  0  0  0
    0.3734   -1.6056    3.7980 C   0  0  0  0  0  0  0  0  0  0  0  0
    1.5857   -1.0918    3.3175 C   0  0  0  0  0  0  0  0  0  0  0  0
    1.7103   -0.5249    2.0456 C   0  0  0  0  0  0  0  0  0  0  0  0
    0.5913   -0.4780    1.1854 C   0  0  0  0  0  0  0  0  0  0  0  0
    2.9052   -5.7948   -1.6817 F   0  0  0  0  0  0  0  0  0  0  0  0
  1  2  1  0  0  0  0
  2  3  1  0  0  0  0
  2  5  1  0  0  0  0
  3  4  1  0  0  0  0
  5  6  4  0  0  0  0
  5 10  4  0  0  0  0
  6  7  4  0  0  0  0
  7  8  4  0  0  0  0
  8  9  4  0  0  0  0
  9 10  4  0  0  0  0
 10 11  1  0  0  0  0
 11 12  4  0  0  0  0
 11 15  4  0  0  0  0
 12 13  1  0  0  0  0
 12 68  4  0  0  0  0
 13 14  1  0  0  0  0
 15 16  1  0  0  0  0
 15 67  4  0  0  0  0
 16 17  1  0  0  0  0
 17 18  1  0  0  0  0
 17 19  1  0  0  0  0
 17 20  1  0  0  0  0
 20 21  1  0  0  0  0
 21 22  1  0  0  0  0
 22 23  1  0  0  0  0
 22 66  2  0  0  0  0
 23 24  1  0  0  0  0
 23 65  1  0  0  0  0
 24 25  1  0  0  0  0
 25 26  1  0  0  0  0
 25 63  1  0  0  0  0
 26 27  1  0  0  0  0
 26 62  2  0  0  0  0
 27 28  1  0  0  0  0
 27 55  1  0  0  0  0
 28 29  1  0  0  0  0
 29 30  1  0  0  0  0
 29 54  2  0  0  0  0
 30 31  1  0  0  0  0
 30 34  1  0  0  0  0
 31 32  1  0  0  0  0
 31 33  1  0  0  0  0
 34 35  1  0  0  0  0
 34 53  1  0  0  0  0
 35 36  1  0  0  0  0
 35 52  2  0  0  0  0
 36 37  1  0  0  0  0
 36 51  1  0  0  0  0
 36 73  1  0  0  0  0
 37 38  1  0  0  0  0
 38 39  1  0  0  0  0
 39 40  1  0  0  0  0
 39 50  1  0  0  0  0
 40 41  1  0  0  0  0
 40 49  2  0  0  0  0
 41 42  1  0  0  0  0
 42 43  1  0  0  0  0
 43 44  1  0  0  0  0
 43 47  1  0  0  0  0
 43 48  1  0  0  0  0
 44 45  1  0  0  0  0
 44 46  1  0  0  0  0
 50 51  1  0  0  0  0
 55 56  1  0  0  0  0
 56 57  1  0  0  0  0
 56 61  1  0  0  0  0
 57 58  1  0  0  0  0
 58 59  1  0  0  0  0
 58 71  1  0  0  0  0
 59 60  1  0  0  0  0
 60 61  1  0  0  0  0
 63 64  1  0  0  0  0
 64 65  1  0  0  0  0
 67 68  4  0  0  0  0
 67 72  4  0  0  0  0
 68 69  4  0  0  0  0
 69 70  4  0  0  0  0
 70 71  4  0  0  0  0
 71 72  4  0  0  0  0
M  END
$$$$
