mol_ETKDG3_158
  PyMOL3.1          3D                             0

 73 79  0  0  0  0  0  0  0  0999 V2000
    3.9208   -1.1549   -1.7233 C   0  0  0  0  0  0  0  0  0  0  0  0
    3.1361   -0.2786   -2.6105 C   0  0  0  0  0  0  0  0  0  0  0  0
    3.6808    1.0335   -2.7837 O   0  0  0  0  0  0  0  0  0  0  0  0
    3.4018    1.9944   -1.8147 C   0  0  0  0  0  0  0  0  0  0  0  0
    2.9935   -0.8373   -3.9578 C   0  0  0  0  0  0  0  0  0  0  0  0
    3.9877   -0.6220   -4.7943 N   0  0  0  0  0  0  0  0  0  0  0  0
    3.9590   -1.0835   -6.0553 C   0  0  0  0  0  0  0  0  0  0  0  0
    2.8812   -1.8241   -6.5312 C   0  0  0  0  0  0  0  0  0  0  0  0
    1.8214   -2.0743   -5.6630 C   0  0  0  0  0  0  0  0  0  0  0  0
    1.8785   -1.5795   -4.3565 C   0  0  0  0  0  0  0  0  0  0  0  0
    0.7595   -1.8637   -3.4748 C   0  0  0  0  0  0  0  0  0  0  0  0
    0.4614   -3.1101   -3.0384 N   0  0  0  0  0  0  0  0  0  0  0  0
    1.2334   -4.3593   -3.3007 C   0  0  0  0  0  0  0  0  0  0  0  0
    0.5759   -5.3017   -4.1791 C   0  0  0  0  0  0  0  0  0  0  0  0
   -0.1460   -0.9260   -2.9090 C   0  0  0  0  0  0  0  0  0  0  0  0
   -0.1835    0.5713   -2.9949 C   0  0  0  0  0  0  0  0  0  0  0  0
   -1.0100    1.1353   -4.2123 C   0  0  0  0  0  0  0  0  0  0  0  0
   -0.6592    2.6096   -4.3722 C   0  0  0  0  0  0  0  0  0  0  0  0
   -0.6388    0.5093   -5.4891 C   0  0  0  0  0  0  0  0  0  0  0  0
   -2.5065    0.9343   -3.9910 C   0  0  0  0  0  0  0  0  0  0  0  0
   -3.1312    1.8264   -2.9517 O   0  0  0  0  0  0  0  0  0  0  0  0
   -4.2947    2.6151   -3.1739 C   0  0  0  0  0  0  0  0  0  0  0  0
   -4.8456    3.4408   -2.0278 C   0  0  0  0  0  0  0  0  0  0  0  0
   -3.8883    3.5087   -0.9644 N   0  0  0  0  0  0  0  0  0  0  0  0
   -4.2168    4.2729    0.1507 N   0  0  0  0  0  0  0  0  0  0  0  0
   -4.1627    3.7402    1.4092 C   0  0  0  0  0  0  0  0  0  0  0  0
   -3.7246    2.3133    1.5643 C   0  0  0  0  0  0  0  0  0  0  0  0
   -2.8603    2.1193    2.7094 N   0  0  0  0  0  0  0  0  0  0  0  0
   -1.5214    2.0012    2.6005 C   0  0  0  0  0  0  0  0  0  0  0  0
   -0.7837    1.6204    3.8393 C   0  0  0  0  0  0  0  0  0  0  0  0
   -0.1665    2.7764    4.6505 C   0  0  0  0  0  0  0  0  0  0  0  0
    0.0656    2.4434    6.0779 C   0  0  0  0  0  0  0  0  0  0  0  0
   -0.7498    4.1191    4.4145 C   0  0  0  0  0  0  0  0  0  0  0  0
    0.2390    0.6394    3.4567 N   0  0  0  0  0  0  0  0  0  0  0  0
   -0.1286   -0.6834    3.3601 C   0  0  0  0  0  0  0  0  0  0  0  0
    0.7976   -1.8083    2.9483 C   0  0  0  0  0  0  0  0  0  0  0  0
    0.9963   -1.7371    1.4548 C   0  0  0  0  0  0  0  0  0  0  0  0
    1.9352   -2.7878    0.9970 C   0  0  0  0  0  0  0  0  0  0  0  0
    1.4595   -4.1062    1.4137 N   0  0  0  0  0  0  0  0  0  0  0  0
    1.4039   -5.1128    0.4974 C   0  0  0  0  0  0  0  0  0  0  0  0
    0.6000   -6.2450    0.6532 C   0  0  0  0  0  0  0  0  0  0  0  0
    0.0315   -7.2539    0.5930 C   0  0  0  0  0  0  0  0  0  0  0  0
   -0.7044   -8.4481    0.6356 C   0  0  0  0  0  0  0  0  0  0  0  0
    0.0887   -9.5431    0.1773 N   0  0  0  0  0  0  0  0  0  0  0  0
    1.4524   -9.6127    0.5107 C   0  0  0  0  0  0  0  0  0  0  0  0
   -0.4094  -10.5834   -0.6077 C   0  0  0  0  0  0  0  0  0  0  0  0
   -1.1646   -8.7013    2.0615 C   0  0  0  0  0  0  0  0  0  0  0  0
   -1.9392   -8.2898   -0.2150 C   0  0  0  0  0  0  0  0  0  0  0  0
    2.0500   -5.0081   -0.5299 O   0  0  0  0  0  0  0  0  0  0  0  0
    1.0816   -4.2651    2.7846 C   0  0  0  0  0  0  0  0  0  0  0  0
    0.2323   -3.1932    3.2939 C   0  0  0  0  0  0  0  0  0  0  0  0
   -1.3127   -0.9609    3.6262 O   0  0  0  0  0  0  0  0  0  0  0  0
    1.5739    1.1208    3.0747 C   0  0  0  0  0  0  0  0  0  0  0  0
   -0.9887    2.0869    1.5103 O   0  0  0  0  0  0  0  0  0  0  0  0
   -4.9721    1.3577    1.6830 C   0  0  0  0  0  0  0  0  0  0  0  0
   -4.6026   -0.1512    1.6918 C   0  0  0  0  0  0  0  0  0  0  0  0
   -4.1351   -0.5026    0.3273 C   0  0  0  0  0  0  0  0  0  0  0  0
   -3.8354   -1.9038    0.1946 N   0  0  0  0  0  0  0  0  0  0  0  0
   -4.8951   -2.8142    0.6288 C   0  0  0  0  0  0  0  0  0  0  0  0
   -5.4983   -2.3573    1.9684 C   0  0  0  0  0  0  0  0  0  0  0  0
   -5.7953   -0.9187    1.9915 O   0  0  0  0  0  0  0  0  0  0  0  0
   -4.4850    4.3975    2.4084 O   0  0  0  0  0  0  0  0  0  0  0  0
   -4.5520    5.6726   -0.1157 C   0  0  0  0  0  0  0  0  0  0  0  0
   -5.5883    5.7522   -1.2536 C   0  0  0  0  0  0  0  0  0  0  0  0
   -5.2030    4.8950   -2.4569 C   0  0  0  0  0  0  0  0  0  0  0  0
   -4.9109    2.6896   -4.2574 O   0  0  0  0  0  0  0  0  0  0  0  0
   -1.0280   -1.7106   -2.1478 C   0  0  0  0  0  0  0  0  0  0  0  0
   -0.6228   -3.0347   -2.2510 C   0  0  0  0  0  0  0  0  0  0  0  0
   -1.3518   -4.0447   -1.5427 C   0  0  0  0  0  0  0  0  0  0  0  0
   -2.4130   -3.6388   -0.7396 C   0  0  0  0  0  0  0  0  0  0  0  0
   -2.7893   -2.3003   -0.6363 C   0  0  0  0  0  0  0  0  0  0  0  0
   -2.0942   -1.3122   -1.3558 C   0  0  0  0  0  0  0  0  0  0  0  0
    1.9997   -1.7088    3.6187 F   0  0  0  0  0  0  0  0  0  0  0  0
  1  2  1  0  0  0  0
  2  3  1  0  0  0  0
  2  5  1  0  0  0  0
  3  4  1  0  0  0  0
  5  6  4  0  0  0  0
  5 10  4  0  0  0  0
  6  7  4  0  0  0  0
  7  8  4  0  0  0  0
  8  9  4  0  0  0  0
  9 10  4  0  0  0  0
 10 11  1  0  0  0  0
 11 12  4  0  0  0  0
 11 15  4  0  0  0  0
 12 13  1  0  0  0  0
 12 68  4  0  0  0  0
 13 14  1  0  0  0  0
 15 16  1  0  0  0  0
 15 67  4  0  0  0  0
 16 17  1  0  0  0  0
 17 18  1  0  0  0  0
 17 19  1  0  0  0  0
 17 20  1  0  0  0  0
 20 21  1  0  0  0  0
 21 22  1  0  0  0  0
 22 23  1  0  0  0  0
 22 66  2  0  0  0  0
 23 24  1  0  0  0  0
 23 65  1  0  0  0  0
 24 25  1  0  0  0  0
 25 26  1  0  0  0  0
 25 63  1  0  0  0  0
 26 27  1  0  0  0  0
 26 62  2  0  0  0  0
 27 28  1  0  0  0  0
 27 55  1  0  0  0  0
 28 29  1  0  0  0  0
 29 30  1  0  0  0  0
 29 54  2  0  0  0  0
 30 31  1  0  0  0  0
 30 34  1  0  0  0  0
 31 32  1  0  0  0  0
 31 33  1  0  0  0  0
 34 35  1  0  0  0  0
 34 53  1  0  0  0  0
 35 36  1  0  0  0  0
 35 52  2  0  0  0  0
 36 37  1  0  0  0  0
 36 51  1  0  0  0  0
 36 73  1  0  0  0  0
 37 38  1  0  0  0  0
 38 39  1  0  0  0  0
 39 40  1  0  0  0  0
 39 50  1  0  0  0  0
 40 41  1  0  0  0  0
 40 49  2  0  0  0  0
 41 42  1  0  0  0  0
 42 43  1  0  0  0  0
 43 44  1  0  0  0  0
 43 47  1  0  0  0  0
 43 48  1  0  0  0  0
 44 45  1  0  0  0  0
 44 46  1  0  0  0  0
 50 51  1  0  0  0  0
 55 56  1  0  0  0  0
 56 57  1  0  0  0  0
 56 61  1  0  0  0  0
 57 58  1  0  0  0  0
 58 59  1  0  0  0  0
 58 71  1  0  0  0  0
 59 60  1  0  0  0  0
 60 61  1  0  0  0  0
 63 64  1  0  0  0  0
 64 65  1  0  0  0  0
 67 68  4  0  0  0  0
 67 72  4  0  0  0  0
 68 69  4  0  0  0  0
 69 70  4  0  0  0  0
 70 71  4  0  0  0  0
 71 72  4  0  0  0  0
M  END
$$$$
