mol_bioactive_18
  PyMOL3.1          3D                             0

 73 79  0  0  0  0  0  0  0  0999 V2000
   -1.9735    3.5751   -1.1223 C   0  0  0  0  0  0  0  0  0  0  0  0
   -2.7557    3.6417    0.1176 C   0  0  0  0  0  0  0  0  0  0  0  0
   -1.9875    3.6343    1.3208 O   0  0  0  0  0  0  0  0  0  0  0  0
   -0.9466    4.5603    1.4942 C   0  0  0  0  0  0  0  0  0  0  0  0
   -3.7624    2.5986    0.3382 C   0  0  0  0  0  0  0  0  0  0  0  0
   -4.8752    3.2765    0.5212 N   0  0  0  0  0  0  0  0  0  0  0  0
   -6.0447    2.6854    0.6763 C   0  0  0  0  0  0  0  0  0  0  0  0
   -6.1675    1.3165    0.6330 C   0  0  0  0  0  0  0  0  0  0  0  0
   -5.0201    0.5406    0.4354 C   0  0  0  0  0  0  0  0  0  0  0  0
   -3.7895    1.1830    0.3038 C   0  0  0  0  0  0  0  0  0  0  0  0
   -2.6292    0.3231    0.1356 C   0  0  0  0  0  0  0  0  0  0  0  0
   -2.2544   -0.1877   -1.0641 N   0  0  0  0  0  0  0  0  0  0  0  0
   -2.8636    0.1068   -2.4038 C   0  0  0  0  0  0  0  0  0  0  0  0
   -3.6220   -0.9847   -2.9894 C   0  0  0  0  0  0  0  0  0  0  0  0
   -1.7250   -0.1139    1.1587 C   0  0  0  0  0  0  0  0  0  0  0  0
   -1.5837    0.2901    2.6046 C   0  0  0  0  0  0  0  0  0  0  0  0
   -2.3872   -0.5128    3.7118 C   0  0  0  0  0  0  0  0  0  0  0  0
   -3.8761   -0.2609    3.6347 C   0  0  0  0  0  0  0  0  0  0  0  0
   -1.9568    0.0237    5.0485 C   0  0  0  0  0  0  0  0  0  0  0  0
   -2.1296   -2.0264    3.6621 C   0  0  0  0  0  0  0  0  0  0  0  0
   -0.9629   -2.5197    4.5068 O   0  0  0  0  0  0  0  0  0  0  0  0
   -1.0206   -3.6232    5.4287 C   0  0  0  0  0  0  0  0  0  0  0  0
    0.2482   -4.0237    6.1988 C   0  0  0  0  0  0  0  0  0  0  0  0
    1.2024   -2.9543    6.1665 N   0  0  0  0  0  0  0  0  0  0  0  0
    2.4080   -3.0938    6.8496 N   0  0  0  0  0  0  0  0  0  0  0  0
    3.6102   -2.8967    6.2037 C   0  0  0  0  0  0  0  0  0  0  0  0
    3.5946   -2.5969    4.7225 C   0  0  0  0  0  0  0  0  0  0  0  0
    4.5920   -1.5980    4.3577 N   0  0  0  0  0  0  0  0  0  0  0  0
    4.3452   -0.2907    4.2024 C   0  0  0  0  0  0  0  0  0  0  0  0
    5.4800    0.5504    3.6904 C   0  0  0  0  0  0  0  0  0  0  0  0
    6.2347    1.3582    4.8044 C   0  0  0  0  0  0  0  0  0  0  0  0
    7.4125    2.1188    4.2837 C   0  0  0  0  0  0  0  0  0  0  0  0
    6.5978    0.5035    5.9842 C   0  0  0  0  0  0  0  0  0  0  0  0
    4.9148    1.4069    2.6335 N   0  0  0  0  0  0  0  0  0  0  0  0
    4.7788    0.8924    1.3584 C   0  0  0  0  0  0  0  0  0  0  0  0
    4.1387    1.6352    0.2007 C   0  0  0  0  0  0  0  0  0  0  0  0
    2.6376    1.5502    0.3872 C   0  0  0  0  0  0  0  0  0  0  0  0
    1.9039    2.2801   -0.6831 C   0  0  0  0  0  0  0  0  0  0  0  0
    2.3308    1.7944   -2.0056 N   0  0  0  0  0  0  0  0  0  0  0  0
    1.3992    1.4209   -2.9493 C   0  0  0  0  0  0  0  0  0  0  0  0
    1.7729    0.7444   -4.1007 C   0  0  0  0  0  0  0  0  0  0  0  0
    1.9325    0.2211   -5.1256 C   0  0  0  0  0  0  0  0  0  0  0  0
    2.3283   -0.4521   -6.2973 C   0  0  0  0  0  0  0  0  0  0  0  0
    1.4423   -0.2044   -7.3975 N   0  0  0  0  0  0  0  0  0  0  0  0
    1.4940   -1.0070   -8.5430 C   0  0  0  0  0  0  0  0  0  0  0  0
    0.8002    1.0394   -7.5365 C   0  0  0  0  0  0  0  0  0  0  0  0
    3.7458   -0.0085   -6.6764 C   0  0  0  0  0  0  0  0  0  0  0  0
    2.3845   -1.9344   -5.9926 C   0  0  0  0  0  0  0  0  0  0  0  0
    0.2100    1.6518   -2.7765 O   0  0  0  0  0  0  0  0  0  0  0  0
    3.7432    1.7306   -2.2437 C   0  0  0  0  0  0  0  0  0  0  0  0
    4.4950    1.0480   -1.1723 C   0  0  0  0  0  0  0  0  0  0  0  0
    5.1815   -0.2666    1.1677 O   0  0  0  0  0  0  0  0  0  0  0  0
    4.3844    2.7248    3.0072 C   0  0  0  0  0  0  0  0  0  0  0  0
    3.2161    0.1403    4.3594 O   0  0  0  0  0  0  0  0  0  0  0  0
    3.8845   -3.9200    3.9112 C   0  0  0  0  0  0  0  0  0  0  0  0
    3.3485   -4.1897    2.4702 C   0  0  0  0  0  0  0  0  0  0  0  0
    2.4615   -3.1365    1.9558 C   0  0  0  0  0  0  0  0  0  0  0  0
    2.1201   -3.2153    0.5630 N   0  0  0  0  0  0  0  0  0  0  0  0
    2.8398   -4.1138   -0.2957 C   0  0  0  0  0  0  0  0  0  0  0  0
    4.0983   -4.6991    0.2376 C   0  0  0  0  0  0  0  0  0  0  0  0
    4.4877   -4.3827    1.5892 O   0  0  0  0  0  0  0  0  0  0  0  0
    4.6922   -3.0092    6.7937 O   0  0  0  0  0  0  0  0  0  0  0  0
    2.2873   -3.4098    8.2712 C   0  0  0  0  0  0  0  0  0  0  0  0
    1.2877   -4.5723    8.4696 C   0  0  0  0  0  0  0  0  0  0  0  0
   -0.0192   -4.3842    7.6892 C   0  0  0  0  0  0  0  0  0  0  0  0
   -2.0491   -4.2824    5.6258 O   0  0  0  0  0  0  0  0  0  0  0  0
   -0.8295   -0.9671    0.4767 C   0  0  0  0  0  0  0  0  0  0  0  0
   -1.1828   -0.9840   -0.8704 C   0  0  0  0  0  0  0  0  0  0  0  0
   -0.3959   -1.7552   -1.7855 C   0  0  0  0  0  0  0  0  0  0  0  0
    0.6925   -2.4639   -1.2704 C   0  0  0  0  0  0  0  0  0  0  0  0
    1.0307   -2.4568    0.0863 C   0  0  0  0  0  0  0  0  0  0  0  0
    0.2637   -1.6781    0.9777 C   0  0  0  0  0  0  0  0  0  0  0  0
    4.5760    2.9419    0.1567 F   0  0  0  0  0  0  0  0  0  0  0  0
  1  2  1  0  0  0  0
  2  3  1  0  0  0  0
  2  5  1  0  0  0  0
  3  4  1  0  0  0  0
  5  6  4  0  0  0  0
  5 10  4  0  0  0  0
  6  7  4  0  0  0  0
  7  8  4  0  0  0  0
  8  9  4  0  0  0  0
  9 10  4  0  0  0  0
 10 11  1  0  0  0  0
 11 12  4  0  0  0  0
 11 15  4  0  0  0  0
 12 13  1  0  0  0  0
 12 68  4  0  0  0  0
 13 14  1  0  0  0  0
 15 16  1  0  0  0  0
 15 67  4  0  0  0  0
 16 17  1  0  0  0  0
 17 18  1  0  0  0  0
 17 19  1  0  0  0  0
 17 20  1  0  0  0  0
 20 21  1  0  0  0  0
 21 22  1  0  0  0  0
 22 23  1  0  0  0  0
 22 66  2  0  0  0  0
 23 24  1  0  0  0  0
 23 65  1  0  0  0  0
 24 25  1  0  0  0  0
 25 26  1  0  0  0  0
 25 63  1  0  0  0  0
 26 27  1  0  0  0  0
 26 62  2  0  0  0  0
 27 28  1  0  0  0  0
 27 55  1  0  0  0  0
 28 29  1  0  0  0  0
 29 30  1  0  0  0  0
 29 54  2  0  0  0  0
 30 31  1  0  0  0  0
 30 34  1  0  0  0  0
 31 32  1  0  0  0  0
 31 33  1  0  0  0  0
 34 35  1  0  0  0  0
 34 53  1  0  0  0  0
 35 36  1  0  0  0  0
 35 52  2  0  0  0  0
 36 37  1  0  0  0  0
 36 51  1  0  0  0  0
 36 73  1  0  0  0  0
 37 38  1  0  0  0  0
 38 39  1  0  0  0  0
 39 40  1  0  0  0  0
 39 50  1  0  0  0  0
 40 41  1  0  0  0  0
 40 49  2  0  0  0  0
 41 42  1  0  0  0  0
 42 43  1  0  0  0  0
 43 44  1  0  0  0  0
 43 47  1  0  0  0  0
 43 48  1  0  0  0  0
 44 45  1  0  0  0  0
 44 46  1  0  0  0  0
 50 51  1  0  0  0  0
 55 56  1  0  0  0  0
 56 57  1  0  0  0  0
 56 61  1  0  0  0  0
 57 58  1  0  0  0  0
 58 59  1  0  0  0  0
 58 71  1  0  0  0  0
 59 60  1  0  0  0  0
 60 61  1  0  0  0  0
 63 64  1  0  0  0  0
 64 65  1  0  0  0  0
 67 68  4  0  0  0  0
 67 72  4  0  0  0  0
 68 69  4  0  0  0  0
 69 70  4  0  0  0  0
 70 71  4  0  0  0  0
 71 72  4  0  0  0  0
M  END
$$$$
