mol_ETKDG5_299
  PyMOL3.1          3D                             0

 73 79  0  0  0  0  0  0  0  0999 V2000
    2.8934    1.1872   -6.4285 C   0  0  0  0  0  0  0  0  0  0  0  0
    3.3083   -0.1647   -5.9593 C   0  0  0  0  0  0  0  0  0  0  0  0
    4.7031   -0.4026   -6.0559 O   0  0  0  0  0  0  0  0  0  0  0  0
    5.5645    0.3779   -5.2507 C   0  0  0  0  0  0  0  0  0  0  0  0
    2.5999   -1.2818   -6.6615 C   0  0  0  0  0  0  0  0  0  0  0  0
    3.0502   -1.6462   -7.8482 N   0  0  0  0  0  0  0  0  0  0  0  0
    2.4331   -2.6101   -8.5662 C   0  0  0  0  0  0  0  0  0  0  0  0
    1.2885   -3.2640   -8.0956 C   0  0  0  0  0  0  0  0  0  0  0  0
    0.7937   -2.8970   -6.8440 C   0  0  0  0  0  0  0  0  0  0  0  0
    1.4668   -1.9056   -6.1178 C   0  0  0  0  0  0  0  0  0  0  0  0
    0.9791   -1.5415   -4.8156 C   0  0  0  0  0  0  0  0  0  0  0  0
    0.1778   -0.4715   -4.5917 N   0  0  0  0  0  0  0  0  0  0  0  0
   -0.4347    0.4544   -5.6139 C   0  0  0  0  0  0  0  0  0  0  0  0
   -1.8505    0.0970   -5.9202 C   0  0  0  0  0  0  0  0  0  0  0  0
    1.2590   -2.2037   -3.5901 C   0  0  0  0  0  0  0  0  0  0  0  0
    1.8784   -3.5335   -3.3050 C   0  0  0  0  0  0  0  0  0  0  0  0
    3.4158   -3.6397   -3.1193 C   0  0  0  0  0  0  0  0  0  0  0  0
    4.1575   -3.6281   -4.4493 C   0  0  0  0  0  0  0  0  0  0  0  0
    3.6953   -4.9997   -2.5470 C   0  0  0  0  0  0  0  0  0  0  0  0
    3.9222   -2.5803   -2.2264 C   0  0  0  0  0  0  0  0  0  0  0  0
    4.1255   -3.0112   -0.7910 O   0  0  0  0  0  0  0  0  0  0  0  0
    5.2117   -2.6040    0.0136 C   0  0  0  0  0  0  0  0  0  0  0  0
    5.2931   -3.0811    1.4404 C   0  0  0  0  0  0  0  0  0  0  0  0
    4.3221   -4.1108    1.6973 N   0  0  0  0  0  0  0  0  0  0  0  0
    4.3253   -4.6654    2.9748 N   0  0  0  0  0  0  0  0  0  0  0  0
    3.2000   -4.6905    3.7398 C   0  0  0  0  0  0  0  0  0  0  0  0
    1.9365   -4.1022    3.1925 C   0  0  0  0  0  0  0  0  0  0  0  0
    0.7715   -4.7633    3.7445 N   0  0  0  0  0  0  0  0  0  0  0  0
   -0.0358   -5.5551    3.0398 C   0  0  0  0  0  0  0  0  0  0  0  0
   -1.2783   -6.0288    3.7170 C   0  0  0  0  0  0  0  0  0  0  0  0
   -1.2160   -7.5169    4.1934 C   0  0  0  0  0  0  0  0  0  0  0  0
   -2.3680   -7.8938    5.0700 C   0  0  0  0  0  0  0  0  0  0  0  0
    0.1083   -7.8864    4.7830 C   0  0  0  0  0  0  0  0  0  0  0  0
   -2.3679   -5.7667    2.7706 N   0  0  0  0  0  0  0  0  0  0  0  0
   -2.9365   -4.5132    2.7761 C   0  0  0  0  0  0  0  0  0  0  0  0
   -3.9858   -4.0294    1.8127 C   0  0  0  0  0  0  0  0  0  0  0  0
   -4.8132   -2.8688    2.3735 C   0  0  0  0  0  0  0  0  0  0  0  0
   -5.7179   -2.3026    1.3298 C   0  0  0  0  0  0  0  0  0  0  0  0
   -4.9576   -1.9946    0.1032 N   0  0  0  0  0  0  0  0  0  0  0  0
   -4.9494   -0.7799   -0.5093 C   0  0  0  0  0  0  0  0  0  0  0  0
   -5.5568    0.3180    0.0402 C   0  0  0  0  0  0  0  0  0  0  0  0
   -6.0661    1.2982    0.3632 C   0  0  0  0  0  0  0  0  0  0  0  0
   -6.7361    2.4186    0.8411 C   0  0  0  0  0  0  0  0  0  0  0  0
   -6.9639    3.3237   -0.2303 N   0  0  0  0  0  0  0  0  0  0  0  0
   -6.8933    4.7101   -0.0743 C   0  0  0  0  0  0  0  0  0  0  0  0
   -7.5559    2.8514   -1.4335 C   0  0  0  0  0  0  0  0  0  0  0  0
   -5.9183    3.0462    1.9540 C   0  0  0  0  0  0  0  0  0  0  0  0
   -8.0747    2.0141    1.4553 C   0  0  0  0  0  0  0  0  0  0  0  0
   -4.3489   -0.6389   -1.5925 O   0  0  0  0  0  0  0  0  0  0  0  0
   -4.1644   -3.0417   -0.4398 C   0  0  0  0  0  0  0  0  0  0  0  0
   -3.2308   -3.5704    0.5765 C   0  0  0  0  0  0  0  0  0  0  0  0
   -2.5148   -3.6980    3.6236 O   0  0  0  0  0  0  0  0  0  0  0  0
   -2.7173   -6.7936    1.7771 C   0  0  0  0  0  0  0  0  0  0  0  0
    0.1980   -5.7578    1.8577 O   0  0  0  0  0  0  0  0  0  0  0  0
    1.8512   -2.5730    3.5628 C   0  0  0  0  0  0  0  0  0  0  0  0
    0.6136   -1.8634    2.9621 C   0  0  0  0  0  0  0  0  0  0  0  0
    0.9498   -1.4969    1.5610 C   0  0  0  0  0  0  0  0  0  0  0  0
   -0.1280   -0.7517    0.9403 N   0  0  0  0  0  0  0  0  0  0  0  0
   -0.5418    0.4327    1.7290 C   0  0  0  0  0  0  0  0  0  0  0  0
   -0.7902    0.0520    3.1866 C   0  0  0  0  0  0  0  0  0  0  0  0
    0.3601   -0.6797    3.7418 O   0  0  0  0  0  0  0  0  0  0  0  0
    3.2091   -5.1430    4.8983 O   0  0  0  0  0  0  0  0  0  0  0  0
    5.5929   -5.2677    3.3960 C   0  0  0  0  0  0  0  0  0  0  0  0
    6.7351   -4.2489    3.1773 C   0  0  0  0  0  0  0  0  0  0  0  0
    6.7030   -3.6421    1.7795 C   0  0  0  0  0  0  0  0  0  0  0  0
    6.1514   -1.8646   -0.3713 O   0  0  0  0  0  0  0  0  0  0  0  0
    0.6335   -1.4094   -2.6192 C   0  0  0  0  0  0  0  0  0  0  0  0
   -0.0516   -0.3951   -3.2725 C   0  0  0  0  0  0  0  0  0  0  0  0
   -0.8619    0.5074   -2.5025 C   0  0  0  0  0  0  0  0  0  0  0  0
   -0.8681    0.3393   -1.1124 C   0  0  0  0  0  0  0  0  0  0  0  0
   -0.1243   -0.6494   -0.4659 C   0  0  0  0  0  0  0  0  0  0  0  0
    0.6243   -1.5659   -1.2308 C   0  0  0  0  0  0  0  0  0  0  0  0
   -4.8856   -5.0255    1.4788 F   0  0  0  0  0  0  0  0  0  0  0  0
  1  2  1  0  0  0  0
  2  3  1  0  0  0  0
  2  5  1  0  0  0  0
  3  4  1  0  0  0  0
  5  6  4  0  0  0  0
  5 10  4  0  0  0  0
  6  7  4  0  0  0  0
  7  8  4  0  0  0  0
  8  9  4  0  0  0  0
  9 10  4  0  0  0  0
 10 11  1  0  0  0  0
 11 12  4  0  0  0  0
 11 15  4  0  0  0  0
 12 13  1  0  0  0  0
 12 68  4  0  0  0  0
 13 14  1  0  0  0  0
 15 16  1  0  0  0  0
 15 67  4  0  0  0  0
 16 17  1  0  0  0  0
 17 18  1  0  0  0  0
 17 19  1  0  0  0  0
 17 20  1  0  0  0  0
 20 21  1  0  0  0  0
 21 22  1  0  0  0  0
 22 23  1  0  0  0  0
 22 66  2  0  0  0  0
 23 24  1  0  0  0  0
 23 65  1  0  0  0  0
 24 25  1  0  0  0  0
 25 26  1  0  0  0  0
 25 63  1  0  0  0  0
 26 27  1  0  0  0  0
 26 62  2  0  0  0  0
 27 28  1  0  0  0  0
 27 55  1  0  0  0  0
 28 29  1  0  0  0  0
 29 30  1  0  0  0  0
 29 54  2  0  0  0  0
 30 31  1  0  0  0  0
 30 34  1  0  0  0  0
 31 32  1  0  0  0  0
 31 33  1  0  0  0  0
 34 35  1  0  0  0  0
 34 53  1  0  0  0  0
 35 36  1  0  0  0  0
 35 52  2  0  0  0  0
 36 37  1  0  0  0  0
 36 51  1  0  0  0  0
 36 73  1  0  0  0  0
 37 38  1  0  0  0  0
 38 39  1  0  0  0  0
 39 40  1  0  0  0  0
 39 50  1  0  0  0  0
 40 41  1  0  0  0  0
 40 49  2  0  0  0  0
 41 42  1  0  0  0  0
 42 43  1  0  0  0  0
 43 44  1  0  0  0  0
 43 47  1  0  0  0  0
 43 48  1  0  0  0  0
 44 45  1  0  0  0  0
 44 46  1  0  0  0  0
 50 51  1  0  0  0  0
 55 56  1  0  0  0  0
 56 57  1  0  0  0  0
 56 61  1  0  0  0  0
 57 58  1  0  0  0  0
 58 59  1  0  0  0  0
 58 71  1  0  0  0  0
 59 60  1  0  0  0  0
 60 61  1  0  0  0  0
 63 64  1  0  0  0  0
 64 65  1  0  0  0  0
 67 68  4  0  0  0  0
 67 72  4  0  0  0  0
 68 69  4  0  0  0  0
 69 70  4  0  0  0  0
 70 71  4  0  0  0  0
 71 72  4  0  0  0  0
M  END
$$$$
