mol_ETKDG3_180
  PyMOL3.1          3D                             0

 73 79  0  0  0  0  0  0  0  0999 V2000
   -7.1114   -1.7471    1.8435 C   0  0  0  0  0  0  0  0  0  0  0  0
   -5.6710   -2.0964    1.8694 C   0  0  0  0  0  0  0  0  0  0  0  0
   -5.0484   -2.0488    3.1318 O   0  0  0  0  0  0  0  0  0  0  0  0
   -4.7644   -0.7771    3.6615 C   0  0  0  0  0  0  0  0  0  0  0  0
   -5.3891   -3.4279    1.2978 C   0  0  0  0  0  0  0  0  0  0  0  0
   -5.7582   -4.4924    1.9895 N   0  0  0  0  0  0  0  0  0  0  0  0
   -5.5901   -5.7409    1.4996 C   0  0  0  0  0  0  0  0  0  0  0  0
   -5.0262   -5.9625    0.2399 C   0  0  0  0  0  0  0  0  0  0  0  0
   -4.6318   -4.8482   -0.5091 C   0  0  0  0  0  0  0  0  0  0  0  0
   -4.7960   -3.5724    0.0511 C   0  0  0  0  0  0  0  0  0  0  0  0
   -4.3411   -2.4316   -0.7064 C   0  0  0  0  0  0  0  0  0  0  0  0
   -5.1124   -1.8168   -1.6309 N   0  0  0  0  0  0  0  0  0  0  0  0
   -6.5242   -2.1584   -2.0289 C   0  0  0  0  0  0  0  0  0  0  0  0
   -6.5936   -2.8369   -3.3364 C   0  0  0  0  0  0  0  0  0  0  0  0
   -3.0992   -1.7483   -0.5505 C   0  0  0  0  0  0  0  0  0  0  0  0
   -1.9653   -1.9309    0.4242 C   0  0  0  0  0  0  0  0  0  0  0  0
   -0.8028   -2.9422    0.0334 C   0  0  0  0  0  0  0  0  0  0  0  0
   -1.2593   -4.3964    0.1359 C   0  0  0  0  0  0  0  0  0  0  0  0
    0.2660   -2.7952    1.0731 C   0  0  0  0  0  0  0  0  0  0  0  0
   -0.2139   -2.7138   -1.3662 C   0  0  0  0  0  0  0  0  0  0  0  0
    1.0043   -1.8210   -1.4555 O   0  0  0  0  0  0  0  0  0  0  0  0
    2.1639   -2.1057   -2.2361 C   0  0  0  0  0  0  0  0  0  0  0  0
    3.2824   -1.0711   -2.2964 C   0  0  0  0  0  0  0  0  0  0  0  0
    3.1823   -0.1604   -1.1975 N   0  0  0  0  0  0  0  0  0  0  0  0
    4.1500    0.8358   -1.0952 N   0  0  0  0  0  0  0  0  0  0  0  0
    3.8065    2.1557   -1.0182 C   0  0  0  0  0  0  0  0  0  0  0  0
    2.3562    2.5211   -1.0638 C   0  0  0  0  0  0  0  0  0  0  0  0
    2.0213    3.6010   -0.1641 N   0  0  0  0  0  0  0  0  0  0  0  0
    1.3701    3.4173    0.9941 C   0  0  0  0  0  0  0  0  0  0  0  0
    0.8915    4.6526    1.6728 C   0  0  0  0  0  0  0  0  0  0  0  0
    1.7641    5.1979    2.8233 C   0  0  0  0  0  0  0  0  0  0  0  0
    3.0403    4.5164    3.0820 C   0  0  0  0  0  0  0  0  0  0  0  0
    1.8219    6.7013    2.8400 C   0  0  0  0  0  0  0  0  0  0  0  0
   -0.4933    4.4037    2.0888 N   0  0  0  0  0  0  0  0  0  0  0  0
   -1.4925    4.6301    1.1593 C   0  0  0  0  0  0  0  0  0  0  0  0
   -2.9625    4.3483    1.3699 C   0  0  0  0  0  0  0  0  0  0  0  0
   -3.8544    5.1386    0.3957 C   0  0  0  0  0  0  0  0  0  0  0  0
   -5.2896    4.7164    0.5035 C   0  0  0  0  0  0  0  0  0  0  0  0
   -5.4042    3.2482    0.3964 N   0  0  0  0  0  0  0  0  0  0  0  0
   -6.2141    2.6115   -0.5117 C   0  0  0  0  0  0  0  0  0  0  0  0
   -6.6624    3.2501   -1.6516 C   0  0  0  0  0  0  0  0  0  0  0  0
   -7.1169    3.7276   -2.6107 C   0  0  0  0  0  0  0  0  0  0  0  0
   -7.5866    4.4605   -3.7283 C   0  0  0  0  0  0  0  0  0  0  0  0
   -9.0143    4.4200   -3.7725 N   0  0  0  0  0  0  0  0  0  0  0  0
   -9.7906    5.4697   -3.2358 C   0  0  0  0  0  0  0  0  0  0  0  0
   -9.6917    3.2231   -4.1154 C   0  0  0  0  0  0  0  0  0  0  0  0
   -7.0769    5.8971   -3.6195 C   0  0  0  0  0  0  0  0  0  0  0  0
   -7.0137    3.8994   -5.0215 C   0  0  0  0  0  0  0  0  0  0  0  0
   -6.5163    1.4123   -0.3467 O   0  0  0  0  0  0  0  0  0  0  0  0
   -4.5837    2.4724    1.2798 C   0  0  0  0  0  0  0  0  0  0  0  0
   -3.1493    2.8548    1.1214 C   0  0  0  0  0  0  0  0  0  0  0  0
   -1.1435    5.0794    0.0501 O   0  0  0  0  0  0  0  0  0  0  0  0
   -0.7428    3.8176    3.4182 C   0  0  0  0  0  0  0  0  0  0  0  0
    1.0843    2.2899    1.3712 O   0  0  0  0  0  0  0  0  0  0  0  0
    1.9662    2.9395   -2.5292 C   0  0  0  0  0  0  0  0  0  0  0  0
    0.4775    3.3085   -2.7146 C   0  0  0  0  0  0  0  0  0  0  0  0
   -0.2856    2.0341   -2.7854 C   0  0  0  0  0  0  0  0  0  0  0  0
   -1.6774    2.2593   -3.0777 N   0  0  0  0  0  0  0  0  0  0  0  0
   -1.9138    3.1124   -4.2691 C   0  0  0  0  0  0  0  0  0  0  0  0
   -1.0546    4.3811   -4.2071 C   0  0  0  0  0  0  0  0  0  0  0  0
    0.3537    4.0451   -3.9521 O   0  0  0  0  0  0  0  0  0  0  0  0
    4.6643    3.0592   -0.9632 O   0  0  0  0  0  0  0  0  0  0  0  0
    5.5320    0.3619   -1.0003 C   0  0  0  0  0  0  0  0  0  0  0  0
    5.7962   -0.6383   -2.1507 C   0  0  0  0  0  0  0  0  0  0  0  0
    4.7069   -1.7081   -2.2643 C   0  0  0  0  0  0  0  0  0  0  0  0
    2.3239   -3.1626   -2.8800 O   0  0  0  0  0  0  0  0  0  0  0  0
   -3.1759   -0.7121   -1.4948 C   0  0  0  0  0  0  0  0  0  0  0  0
   -4.4180   -0.7828   -2.1221 C   0  0  0  0  0  0  0  0  0  0  0  0
   -4.7655    0.1947   -3.1091 C   0  0  0  0  0  0  0  0  0  0  0  0
   -3.8262    1.1852   -3.3859 C   0  0  0  0  0  0  0  0  0  0  0  0
   -2.5886    1.2412   -2.7549 C   0  0  0  0  0  0  0  0  0  0  0  0
   -2.2520    0.2930   -1.7678 C   0  0  0  0  0  0  0  0  0  0  0  0
   -3.3639    4.6943    2.6461 F   0  0  0  0  0  0  0  0  0  0  0  0
  1  2  1  0  0  0  0
  2  3  1  0  0  0  0
  2  5  1  0  0  0  0
  3  4  1  0  0  0  0
  5  6  4  0  0  0  0
  5 10  4  0  0  0  0
  6  7  4  0  0  0  0
  7  8  4  0  0  0  0
  8  9  4  0  0  0  0
  9 10  4  0  0  0  0
 10 11  1  0  0  0  0
 11 12  4  0  0  0  0
 11 15  4  0  0  0  0
 12 13  1  0  0  0  0
 12 68  4  0  0  0  0
 13 14  1  0  0  0  0
 15 16  1  0  0  0  0
 15 67  4  0  0  0  0
 16 17  1  0  0  0  0
 17 18  1  0  0  0  0
 17 19  1  0  0  0  0
 17 20  1  0  0  0  0
 20 21  1  0  0  0  0
 21 22  1  0  0  0  0
 22 23  1  0  0  0  0
 22 66  2  0  0  0  0
 23 24  1  0  0  0  0
 23 65  1  0  0  0  0
 24 25  1  0  0  0  0
 25 26  1  0  0  0  0
 25 63  1  0  0  0  0
 26 27  1  0  0  0  0
 26 62  2  0  0  0  0
 27 28  1  0  0  0  0
 27 55  1  0  0  0  0
 28 29  1  0  0  0  0
 29 30  1  0  0  0  0
 29 54  2  0  0  0  0
 30 31  1  0  0  0  0
 30 34  1  0  0  0  0
 31 32  1  0  0  0  0
 31 33  1  0  0  0  0
 34 35  1  0  0  0  0
 34 53  1  0  0  0  0
 35 36  1  0  0  0  0
 35 52  2  0  0  0  0
 36 37  1  0  0  0  0
 36 51  1  0  0  0  0
 36 73  1  0  0  0  0
 37 38  1  0  0  0  0
 38 39  1  0  0  0  0
 39 40  1  0  0  0  0
 39 50  1  0  0  0  0
 40 41  1  0  0  0  0
 40 49  2  0  0  0  0
 41 42  1  0  0  0  0
 42 43  1  0  0  0  0
 43 44  1  0  0  0  0
 43 47  1  0  0  0  0
 43 48  1  0  0  0  0
 44 45  1  0  0  0  0
 44 46  1  0  0  0  0
 50 51  1  0  0  0  0
 55 56  1  0  0  0  0
 56 57  1  0  0  0  0
 56 61  1  0  0  0  0
 57 58  1  0  0  0  0
 58 59  1  0  0  0  0
 58 71  1  0  0  0  0
 59 60  1  0  0  0  0
 60 61  1  0  0  0  0
 63 64  1  0  0  0  0
 64 65  1  0  0  0  0
 67 68  4  0  0  0  0
 67 72  4  0  0  0  0
 68 69  4  0  0  0  0
 69 70  4  0  0  0  0
 70 71  4  0  0  0  0
 71 72  4  0  0  0  0
M  END
$$$$
