mol_ETKDG5_252
  PyMOL3.1          3D                             0

 73 79  0  0  0  0  0  0  0  0999 V2000
   -6.2640    1.9304    3.4422 C   0  0  0  0  0  0  0  0  0  0  0  0
   -5.0876    1.0215    3.4300 C   0  0  0  0  0  0  0  0  0  0  0  0
   -4.2014    1.1515    4.5241 O   0  0  0  0  0  0  0  0  0  0  0  0
   -3.4145    2.3246    4.5873 C   0  0  0  0  0  0  0  0  0  0  0  0
   -5.4708   -0.4083    3.3309 C   0  0  0  0  0  0  0  0  0  0  0  0
   -5.9880   -0.9920    4.4042 N   0  0  0  0  0  0  0  0  0  0  0  0
   -6.4224   -2.2776    4.3653 C   0  0  0  0  0  0  0  0  0  0  0  0
   -6.3569   -3.0415    3.1911 C   0  0  0  0  0  0  0  0  0  0  0  0
   -5.8241   -2.4385    2.0383 C   0  0  0  0  0  0  0  0  0  0  0  0
   -5.3492   -1.1163    2.1321 C   0  0  0  0  0  0  0  0  0  0  0  0
   -4.7462   -0.5167    0.9668 C   0  0  0  0  0  0  0  0  0  0  0  0
   -5.4670    0.0993   -0.0142 N   0  0  0  0  0  0  0  0  0  0  0  0
   -6.9596    0.3183   -0.0728 C   0  0  0  0  0  0  0  0  0  0  0  0
   -7.6455   -0.5229   -1.0694 C   0  0  0  0  0  0  0  0  0  0  0  0
   -3.3432   -0.4130    0.7147 C   0  0  0  0  0  0  0  0  0  0  0  0
   -2.1393   -0.8009    1.5617 C   0  0  0  0  0  0  0  0  0  0  0  0
   -1.5377   -2.2729    1.3741 C   0  0  0  0  0  0  0  0  0  0  0  0
   -2.5441   -3.3695    1.6761 C   0  0  0  0  0  0  0  0  0  0  0  0
   -0.4475   -2.4564    2.4130 C   0  0  0  0  0  0  0  0  0  0  0  0
   -0.9669   -2.5035   -0.0286 C   0  0  0  0  0  0  0  0  0  0  0  0
    0.4308   -1.9685   -0.2643 O   0  0  0  0  0  0  0  0  0  0  0  0
    1.5009   -2.7088   -0.8621 C   0  0  0  0  0  0  0  0  0  0  0  0
    2.8365   -2.0057   -1.1100 C   0  0  0  0  0  0  0  0  0  0  0  0
    2.9091   -0.7910   -0.3444 N   0  0  0  0  0  0  0  0  0  0  0  0
    4.0875   -0.0415   -0.4179 N   0  0  0  0  0  0  0  0  0  0  0  0
    4.0635    1.2932   -0.7473 C   0  0  0  0  0  0  0  0  0  0  0  0
    2.7419    1.9435   -1.0601 C   0  0  0  0  0  0  0  0  0  0  0  0
    2.6734    3.3087   -0.5673 N   0  0  0  0  0  0  0  0  0  0  0  0
    1.9647    3.6724    0.5198 C   0  0  0  0  0  0  0  0  0  0  0  0
    1.8672    5.1389    0.7988 C   0  0  0  0  0  0  0  0  0  0  0  0
    2.9065    5.7030    1.8102 C   0  0  0  0  0  0  0  0  0  0  0  0
    3.1497    7.1681    1.6387 C   0  0  0  0  0  0  0  0  0  0  0  0
    4.1521    4.8984    1.9650 C   0  0  0  0  0  0  0  0  0  0  0  0
    0.4858    5.3973    1.2222 N   0  0  0  0  0  0  0  0  0  0  0  0
   -0.4862    5.5809    0.2497 C   0  0  0  0  0  0  0  0  0  0  0  0
   -1.9600    5.7927    0.5220 C   0  0  0  0  0  0  0  0  0  0  0  0
   -2.6596    6.6552   -0.5434 C   0  0  0  0  0  0  0  0  0  0  0  0
   -4.1242    6.7624   -0.2491 C   0  0  0  0  0  0  0  0  0  0  0  0
   -4.7292    5.4221   -0.0539 N   0  0  0  0  0  0  0  0  0  0  0  0
   -5.8752    5.0301   -0.6956 C   0  0  0  0  0  0  0  0  0  0  0  0
   -6.4478    5.8268   -1.6768 C   0  0  0  0  0  0  0  0  0  0  0  0
   -7.0384    6.4584   -2.4788 C   0  0  0  0  0  0  0  0  0  0  0  0
   -7.5982    7.3300   -3.4384 C   0  0  0  0  0  0  0  0  0  0  0  0
   -9.0199    7.2231   -3.4511 N   0  0  0  0  0  0  0  0  0  0  0  0
   -9.7783    7.7368   -2.3689 C   0  0  0  0  0  0  0  0  0  0  0  0
   -9.7477    6.6822   -4.5342 C   0  0  0  0  0  0  0  0  0  0  0  0
   -7.0140    7.0258   -4.8057 C   0  0  0  0  0  0  0  0  0  0  0  0
   -7.2096    8.7830   -3.1270 C   0  0  0  0  0  0  0  0  0  0  0  0
   -6.4081    3.9371   -0.4202 O   0  0  0  0  0  0  0  0  0  0  0  0
   -4.0706    4.5198    0.8594 C   0  0  0  0  0  0  0  0  0  0  0  0
   -2.6149    4.4058    0.5594 C   0  0  0  0  0  0  0  0  0  0  0  0
   -0.1194    5.5343   -0.9444 O   0  0  0  0  0  0  0  0  0  0  0  0
    0.1639    5.3217    2.6624 C   0  0  0  0  0  0  0  0  0  0  0  0
    1.3449    2.8250    1.1528 O   0  0  0  0  0  0  0  0  0  0  0  0
    2.4895    1.9487   -2.6263 C   0  0  0  0  0  0  0  0  0  0  0  0
    1.0970    2.5068   -3.0519 C   0  0  0  0  0  0  0  0  0  0  0  0
    0.0720    1.4685   -2.7120 C   0  0  0  0  0  0  0  0  0  0  0  0
   -1.2556    1.8518   -3.1514 N   0  0  0  0  0  0  0  0  0  0  0  0
   -1.3523    2.2386   -4.5721 C   0  0  0  0  0  0  0  0  0  0  0  0
   -0.2044    3.1952   -4.9604 C   0  0  0  0  0  0  0  0  0  0  0  0
    1.1073    2.7023   -4.4972 O   0  0  0  0  0  0  0  0  0  0  0  0
    5.1097    1.9630   -0.8389 O   0  0  0  0  0  0  0  0  0  0  0  0
    5.3186   -0.7550   -0.0629 C   0  0  0  0  0  0  0  0  0  0  0  0
    5.3807   -2.0969   -0.8321 C   0  0  0  0  0  0  0  0  0  0  0  0
    4.0681   -2.8933   -0.7381 C   0  0  0  0  0  0  0  0  0  0  0  0
    1.4012   -3.9050   -1.2013 O   0  0  0  0  0  0  0  0  0  0  0  0
   -3.2947    0.2793   -0.5123 C   0  0  0  0  0  0  0  0  0  0  0  0
   -4.6013    0.5719   -0.9205 C   0  0  0  0  0  0  0  0  0  0  0  0
   -4.8089    1.3210   -2.1342 C   0  0  0  0  0  0  0  0  0  0  0  0
   -3.6747    1.7285   -2.8476 C   0  0  0  0  0  0  0  0  0  0  0  0
   -2.3748    1.4224   -2.4202 C   0  0  0  0  0  0  0  0  0  0  0  0
   -2.1737    0.6887   -1.2274 C   0  0  0  0  0  0  0  0  0  0  0  0
   -2.1778    6.4454    1.7185 F   0  0  0  0  0  0  0  0  0  0  0  0
  1  2  1  0  0  0  0
  2  3  1  0  0  0  0
  2  5  1  0  0  0  0
  3  4  1  0  0  0  0
  5  6  4  0  0  0  0
  5 10  4  0  0  0  0
  6  7  4  0  0  0  0
  7  8  4  0  0  0  0
  8  9  4  0  0  0  0
  9 10  4  0  0  0  0
 10 11  1  0  0  0  0
 11 12  4  0  0  0  0
 11 15  4  0  0  0  0
 12 13  1  0  0  0  0
 12 68  4  0  0  0  0
 13 14  1  0  0  0  0
 15 16  1  0  0  0  0
 15 67  4  0  0  0  0
 16 17  1  0  0  0  0
 17 18  1  0  0  0  0
 17 19  1  0  0  0  0
 17 20  1  0  0  0  0
 20 21  1  0  0  0  0
 21 22  1  0  0  0  0
 22 23  1  0  0  0  0
 22 66  2  0  0  0  0
 23 24  1  0  0  0  0
 23 65  1  0  0  0  0
 24 25  1  0  0  0  0
 25 26  1  0  0  0  0
 25 63  1  0  0  0  0
 26 27  1  0  0  0  0
 26 62  2  0  0  0  0
 27 28  1  0  0  0  0
 27 55  1  0  0  0  0
 28 29  1  0  0  0  0
 29 30  1  0  0  0  0
 29 54  2  0  0  0  0
 30 31  1  0  0  0  0
 30 34  1  0  0  0  0
 31 32  1  0  0  0  0
 31 33  1  0  0  0  0
 34 35  1  0  0  0  0
 34 53  1  0  0  0  0
 35 36  1  0  0  0  0
 35 52  2  0  0  0  0
 36 37  1  0  0  0  0
 36 51  1  0  0  0  0
 36 73  1  0  0  0  0
 37 38  1  0  0  0  0
 38 39  1  0  0  0  0
 39 40  1  0  0  0  0
 39 50  1  0  0  0  0
 40 41  1  0  0  0  0
 40 49  2  0  0  0  0
 41 42  1  0  0  0  0
 42 43  1  0  0  0  0
 43 44  1  0  0  0  0
 43 47  1  0  0  0  0
 43 48  1  0  0  0  0
 44 45  1  0  0  0  0
 44 46  1  0  0  0  0
 50 51  1  0  0  0  0
 55 56  1  0  0  0  0
 56 57  1  0  0  0  0
 56 61  1  0  0  0  0
 57 58  1  0  0  0  0
 58 59  1  0  0  0  0
 58 71  1  0  0  0  0
 59 60  1  0  0  0  0
 60 61  1  0  0  0  0
 63 64  1  0  0  0  0
 64 65  1  0  0  0  0
 67 68  4  0  0  0  0
 67 72  4  0  0  0  0
 68 69  4  0  0  0  0
 69 70  4  0  0  0  0
 70 71  4  0  0  0  0
 71 72  4  0  0  0  0
M  END
$$$$
