mol_ETKDG5_297
  PyMOL3.1          3D                             0

 73 79  0  0  0  0  0  0  0  0999 V2000
   -4.5153    7.5835    1.1179 C   0  0  0  0  0  0  0  0  0  0  0  0
   -4.4273    6.9294   -0.2013 C   0  0  0  0  0  0  0  0  0  0  0  0
   -3.8305    7.6963   -1.2185 O   0  0  0  0  0  0  0  0  0  0  0  0
   -2.4497    7.9254   -1.1290 C   0  0  0  0  0  0  0  0  0  0  0  0
   -5.7304    6.5040   -0.7082 C   0  0  0  0  0  0  0  0  0  0  0  0
   -6.4978    7.4146   -1.2740 N   0  0  0  0  0  0  0  0  0  0  0  0
   -7.7373    7.1138   -1.7171 C   0  0  0  0  0  0  0  0  0  0  0  0
   -8.2619    5.8265   -1.5926 C   0  0  0  0  0  0  0  0  0  0  0  0
   -7.4686    4.8538   -0.9824 C   0  0  0  0  0  0  0  0  0  0  0  0
   -6.1689    5.2020   -0.5635 C   0  0  0  0  0  0  0  0  0  0  0  0
   -5.3331    4.1669    0.0178 C   0  0  0  0  0  0  0  0  0  0  0  0
   -5.4040    3.7668    1.3072 N   0  0  0  0  0  0  0  0  0  0  0  0
   -6.2682    4.3619    2.3786 C   0  0  0  0  0  0  0  0  0  0  0  0
   -7.3564    3.5009    2.8005 C   0  0  0  0  0  0  0  0  0  0  0  0
   -4.2977    3.4737   -0.6331 C   0  0  0  0  0  0  0  0  0  0  0  0
   -3.7224    3.7028   -1.9931 C   0  0  0  0  0  0  0  0  0  0  0  0
   -4.3750    2.8835   -3.1461 C   0  0  0  0  0  0  0  0  0  0  0  0
   -3.8832    3.4391   -4.4790 C   0  0  0  0  0  0  0  0  0  0  0  0
   -5.8409    2.9874   -3.2216 C   0  0  0  0  0  0  0  0  0  0  0  0
   -3.9827    1.4824   -2.9520 C   0  0  0  0  0  0  0  0  0  0  0  0
   -2.5977    1.1500   -3.3886 O   0  0  0  0  0  0  0  0  0  0  0  0
   -2.2992    0.0234   -4.1821 C   0  0  0  0  0  0  0  0  0  0  0  0
   -0.8855   -0.2861   -4.5034 C   0  0  0  0  0  0  0  0  0  0  0  0
    0.0535    0.6220   -3.8949 N   0  0  0  0  0  0  0  0  0  0  0  0
    1.3876    0.3613   -4.1963 N   0  0  0  0  0  0  0  0  0  0  0  0
    2.3230    0.1826   -3.2273 C   0  0  0  0  0  0  0  0  0  0  0  0
    1.9948    0.4445   -1.7707 C   0  0  0  0  0  0  0  0  0  0  0  0
    3.2169    0.8120   -1.0948 N   0  0  0  0  0  0  0  0  0  0  0  0
    3.5291    2.0515   -0.7030 C   0  0  0  0  0  0  0  0  0  0  0  0
    4.8689    2.2262   -0.1096 C   0  0  0  0  0  0  0  0  0  0  0  0
    5.7943    3.1032   -1.0019 C   0  0  0  0  0  0  0  0  0  0  0  0
    7.1299    3.3517   -0.3965 C   0  0  0  0  0  0  0  0  0  0  0  0
    5.9122    2.5312   -2.3813 C   0  0  0  0  0  0  0  0  0  0  0  0
    4.8121    2.7016    1.2429 N   0  0  0  0  0  0  0  0  0  0  0  0
    5.0353    1.8118    2.2342 C   0  0  0  0  0  0  0  0  0  0  0  0
    5.1709    2.1436    3.6737 C   0  0  0  0  0  0  0  0  0  0  0  0
    6.0035    1.0680    4.3845 C   0  0  0  0  0  0  0  0  0  0  0  0
    6.1728    1.3576    5.7707 C   0  0  0  0  0  0  0  0  0  0  0  0
    4.8797    1.5850    6.3841 N   0  0  0  0  0  0  0  0  0  0  0  0
    4.6136    0.8668    7.4913 C   0  0  0  0  0  0  0  0  0  0  0  0
    4.0224    1.4425    8.5875 C   0  0  0  0  0  0  0  0  0  0  0  0
    3.7051    1.7562    9.6453 C   0  0  0  0  0  0  0  0  0  0  0  0
    3.2557    2.1815   10.8856 C   0  0  0  0  0  0  0  0  0  0  0  0
    2.6317    1.0765   11.5332 N   0  0  0  0  0  0  0  0  0  0  0  0
    1.2612    0.8657   11.4266 C   0  0  0  0  0  0  0  0  0  0  0  0
    3.4366   -0.0421   11.9034 C   0  0  0  0  0  0  0  0  0  0  0  0
    2.3169    3.3650   10.7421 C   0  0  0  0  0  0  0  0  0  0  0  0
    4.4282    2.6655   11.7227 C   0  0  0  0  0  0  0  0  0  0  0  0
    4.9670   -0.3149    7.5792 O   0  0  0  0  0  0  0  0  0  0  0  0
    3.9834    2.5497    5.7673 C   0  0  0  0  0  0  0  0  0  0  0  0
    3.8113    2.2562    4.3293 C   0  0  0  0  0  0  0  0  0  0  0  0
    5.1587    0.6153    1.9045 O   0  0  0  0  0  0  0  0  0  0  0  0
    4.4540    4.1017    1.4955 C   0  0  0  0  0  0  0  0  0  0  0  0
    2.7161    2.9329   -0.7926 O   0  0  0  0  0  0  0  0  0  0  0  0
    1.4185   -0.8587   -1.1085 C   0  0  0  0  0  0  0  0  0  0  0  0
    0.7989   -0.6469    0.2934 C   0  0  0  0  0  0  0  0  0  0  0  0
   -0.5883   -0.1634    0.0769 C   0  0  0  0  0  0  0  0  0  0  0  0
   -1.3303   -0.0403    1.3082 N   0  0  0  0  0  0  0  0  0  0  0  0
   -1.2881   -1.2158    2.1712 C   0  0  0  0  0  0  0  0  0  0  0  0
    0.1243   -1.7962    2.2715 C   0  0  0  0  0  0  0  0  0  0  0  0
    0.7553   -1.9317    0.9534 O   0  0  0  0  0  0  0  0  0  0  0  0
    3.4523   -0.2187   -3.5245 O   0  0  0  0  0  0  0  0  0  0  0  0
    1.7235    0.3514   -5.6217 C   0  0  0  0  0  0  0  0  0  0  0  0
    0.7837   -0.5996   -6.3592 C   0  0  0  0  0  0  0  0  0  0  0  0
   -0.6675   -0.3342   -6.0235 C   0  0  0  0  0  0  0  0  0  0  0  0
   -3.1255   -0.7887   -4.6997 O   0  0  0  0  0  0  0  0  0  0  0  0
   -3.8091    2.5668    0.3343 C   0  0  0  0  0  0  0  0  0  0  0  0
   -4.5052    2.7825    1.5058 C   0  0  0  0  0  0  0  0  0  0  0  0
   -4.1554    2.0164    2.6764 C   0  0  0  0  0  0  0  0  0  0  0  0
   -3.1030    1.0832    2.5678 C   0  0  0  0  0  0  0  0  0  0  0  0
   -2.4072    0.8745    1.3771 C   0  0  0  0  0  0  0  0  0  0  0  0
   -2.7713    1.6168    0.2329 C   0  0  0  0  0  0  0  0  0  0  0  0
    5.8351    3.3396    3.8566 F   0  0  0  0  0  0  0  0  0  0  0  0
  1  2  1  0  0  0  0
  2  3  1  0  0  0  0
  2  5  1  0  0  0  0
  3  4  1  0  0  0  0
  5  6  4  0  0  0  0
  5 10  4  0  0  0  0
  6  7  4  0  0  0  0
  7  8  4  0  0  0  0
  8  9  4  0  0  0  0
  9 10  4  0  0  0  0
 10 11  1  0  0  0  0
 11 12  4  0  0  0  0
 11 15  4  0  0  0  0
 12 13  1  0  0  0  0
 12 68  4  0  0  0  0
 13 14  1  0  0  0  0
 15 16  1  0  0  0  0
 15 67  4  0  0  0  0
 16 17  1  0  0  0  0
 17 18  1  0  0  0  0
 17 19  1  0  0  0  0
 17 20  1  0  0  0  0
 20 21  1  0  0  0  0
 21 22  1  0  0  0  0
 22 23  1  0  0  0  0
 22 66  2  0  0  0  0
 23 24  1  0  0  0  0
 23 65  1  0  0  0  0
 24 25  1  0  0  0  0
 25 26  1  0  0  0  0
 25 63  1  0  0  0  0
 26 27  1  0  0  0  0
 26 62  2  0  0  0  0
 27 28  1  0  0  0  0
 27 55  1  0  0  0  0
 28 29  1  0  0  0  0
 29 30  1  0  0  0  0
 29 54  2  0  0  0  0
 30 31  1  0  0  0  0
 30 34  1  0  0  0  0
 31 32  1  0  0  0  0
 31 33  1  0  0  0  0
 34 35  1  0  0  0  0
 34 53  1  0  0  0  0
 35 36  1  0  0  0  0
 35 52  2  0  0  0  0
 36 37  1  0  0  0  0
 36 51  1  0  0  0  0
 36 73  1  0  0  0  0
 37 38  1  0  0  0  0
 38 39  1  0  0  0  0
 39 40  1  0  0  0  0
 39 50  1  0  0  0  0
 40 41  1  0  0  0  0
 40 49  2  0  0  0  0
 41 42  1  0  0  0  0
 42 43  1  0  0  0  0
 43 44  1  0  0  0  0
 43 47  1  0  0  0  0
 43 48  1  0  0  0  0
 44 45  1  0  0  0  0
 44 46  1  0  0  0  0
 50 51  1  0  0  0  0
 55 56  1  0  0  0  0
 56 57  1  0  0  0  0
 56 61  1  0  0  0  0
 57 58  1  0  0  0  0
 58 59  1  0  0  0  0
 58 71  1  0  0  0  0
 59 60  1  0  0  0  0
 60 61  1  0  0  0  0
 63 64  1  0  0  0  0
 64 65  1  0  0  0  0
 67 68  4  0  0  0  0
 67 72  4  0  0  0  0
 68 69  4  0  0  0  0
 69 70  4  0  0  0  0
 70 71  4  0  0  0  0
 71 72  4  0  0  0  0
M  END
$$$$
