mol_ETKDG0_304
  PyMOL3.1          3D                             0

 73 79  0  0  0  0  0  0  0  0999 V2000
   -3.7483    7.8747    2.3221 C   0  0  0  0  0  0  0  0  0  0  0  0
   -3.1641    7.3673    1.0618 C   0  0  0  0  0  0  0  0  0  0  0  0
   -1.9739    7.9914    0.6381 O   0  0  0  0  0  0  0  0  0  0  0  0
   -0.7975    7.6499    1.3414 C   0  0  0  0  0  0  0  0  0  0  0  0
   -4.1108    7.4061   -0.0639 C   0  0  0  0  0  0  0  0  0  0  0  0
   -4.4262    8.5821   -0.5774 N   0  0  0  0  0  0  0  0  0  0  0  0
   -5.3479    8.6926   -1.5570 C   0  0  0  0  0  0  0  0  0  0  0  0
   -6.0125    7.5740   -2.0624 C   0  0  0  0  0  0  0  0  0  0  0  0
   -5.6999    6.3227   -1.5236 C   0  0  0  0  0  0  0  0  0  0  0  0
   -4.7070    6.2495   -0.5359 C   0  0  0  0  0  0  0  0  0  0  0  0
   -4.3352    4.9507   -0.0297 C   0  0  0  0  0  0  0  0  0  0  0  0
   -5.0419    4.2898    0.9182 N   0  0  0  0  0  0  0  0  0  0  0  0
   -6.2887    4.7436    1.6204 C   0  0  0  0  0  0  0  0  0  0  0  0
   -7.4946    4.0602    1.1443 C   0  0  0  0  0  0  0  0  0  0  0  0
   -3.1587    4.2291   -0.3713 C   0  0  0  0  0  0  0  0  0  0  0  0
   -1.9978    4.5957   -1.2577 C   0  0  0  0  0  0  0  0  0  0  0  0
   -2.1413    4.2405   -2.7985 C   0  0  0  0  0  0  0  0  0  0  0  0
   -3.3560    4.8500   -3.4468 C   0  0  0  0  0  0  0  0  0  0  0  0
   -0.9661    4.8529   -3.5171 C   0  0  0  0  0  0  0  0  0  0  0  0
   -2.1997    2.7438   -3.0078 C   0  0  0  0  0  0  0  0  0  0  0  0
   -0.8829    2.0176   -3.0447 O   0  0  0  0  0  0  0  0  0  0  0  0
   -0.5036    1.0957   -4.0697 C   0  0  0  0  0  0  0  0  0  0  0  0
    0.7886    0.3180   -3.9098 C   0  0  0  0  0  0  0  0  0  0  0  0
    1.6209    0.9101   -2.9058 N   0  0  0  0  0  0  0  0  0  0  0  0
    2.8653    0.3276   -2.6681 N   0  0  0  0  0  0  0  0  0  0  0  0
    3.2543   -0.0257   -1.4097 C   0  0  0  0  0  0  0  0  0  0  0  0
    2.2982    0.2021   -0.2840 C   0  0  0  0  0  0  0  0  0  0  0  0
    2.9543    0.6520    0.9238 N   0  0  0  0  0  0  0  0  0  0  0  0
    2.8691    1.9122    1.3729 C   0  0  0  0  0  0  0  0  0  0  0  0
    3.4266    2.1703    2.7308 C   0  0  0  0  0  0  0  0  0  0  0  0
    4.8509    2.7450    2.7684 C   0  0  0  0  0  0  0  0  0  0  0  0
    5.5222    3.0115    1.5045 C   0  0  0  0  0  0  0  0  0  0  0  0
    5.6900    2.1870    3.8696 C   0  0  0  0  0  0  0  0  0  0  0  0
    2.4698    3.0471    3.4184 N   0  0  0  0  0  0  0  0  0  0  0  0
    1.3529    2.4894    3.9967 C   0  0  0  0  0  0  0  0  0  0  0  0
    0.2682    3.2687    4.6921 C   0  0  0  0  0  0  0  0  0  0  0  0
   -0.5611    2.4332    5.6635 C   0  0  0  0  0  0  0  0  0  0  0  0
   -1.6411    3.2557    6.2543 C   0  0  0  0  0  0  0  0  0  0  0  0
   -2.4141    3.9683    5.2217 N   0  0  0  0  0  0  0  0  0  0  0  0
   -3.7694    4.0166    5.2126 C   0  0  0  0  0  0  0  0  0  0  0  0
   -4.5280    3.3106    6.1184 C   0  0  0  0  0  0  0  0  0  0  0  0
   -5.2826    2.8373    6.8508 C   0  0  0  0  0  0  0  0  0  0  0  0
   -6.0781    2.1716    7.8004 C   0  0  0  0  0  0  0  0  0  0  0  0
   -7.3704    2.7798    7.8719 N   0  0  0  0  0  0  0  0  0  0  0  0
   -7.4760    4.1002    8.3662 C   0  0  0  0  0  0  0  0  0  0  0  0
   -8.4399    2.3038    7.0827 C   0  0  0  0  0  0  0  0  0  0  0  0
   -5.4057    2.2334    9.1601 C   0  0  0  0  0  0  0  0  0  0  0  0
   -6.1865    0.7107    7.4404 C   0  0  0  0  0  0  0  0  0  0  0  0
   -4.3484    4.7075    4.3625 O   0  0  0  0  0  0  0  0  0  0  0  0
   -1.6919    4.6526    4.1970 C   0  0  0  0  0  0  0  0  0  0  0  0
   -0.6455    3.8157    3.6085 C   0  0  0  0  0  0  0  0  0  0  0  0
    1.2209    1.2560    3.9125 O   0  0  0  0  0  0  0  0  0  0  0  0
    2.6799    4.5029    3.3647 C   0  0  0  0  0  0  0  0  0  0  0  0
    2.2410    2.7501    0.7478 O   0  0  0  0  0  0  0  0  0  0  0  0
    1.5092   -1.1297    0.0211 C   0  0  0  0  0  0  0  0  0  0  0  0
    0.4442   -0.9831    1.1347 C   0  0  0  0  0  0  0  0  0  0  0  0
   -0.7042   -0.2449    0.5546 C   0  0  0  0  0  0  0  0  0  0  0  0
   -1.7929   -0.1321    1.4911 N   0  0  0  0  0  0  0  0  0  0  0  0
   -2.2195   -1.4024    2.0905 C   0  0  0  0  0  0  0  0  0  0  0  0
   -1.0063   -2.2133    2.5782 C   0  0  0  0  0  0  0  0  0  0  0  0
    0.0326   -2.3032    1.5508 O   0  0  0  0  0  0  0  0  0  0  0  0
    4.3440   -0.5723   -1.1841 O   0  0  0  0  0  0  0  0  0  0  0  0
    3.7395    0.1831   -3.8302 C   0  0  0  0  0  0  0  0  0  0  0  0
    2.9562   -0.4674   -4.9838 C   0  0  0  0  0  0  0  0  0  0  0  0
    1.6030    0.2127   -5.2281 C   0  0  0  0  0  0  0  0  0  0  0  0
   -1.1743    0.8756   -5.1067 O   0  0  0  0  0  0  0  0  0  0  0  0
   -3.2518    3.0632    0.4055 C   0  0  0  0  0  0  0  0  0  0  0  0
   -4.4065    3.1442    1.1755 C   0  0  0  0  0  0  0  0  0  0  0  0
   -4.7095    2.0865    2.0964 C   0  0  0  0  0  0  0  0  0  0  0  0
   -3.8088    1.0279    2.1789 C   0  0  0  0  0  0  0  0  0  0  0  0
   -2.6613    0.9590    1.3909 C   0  0  0  0  0  0  0  0  0  0  0  0
   -2.3619    1.9993    0.4944 C   0  0  0  0  0  0  0  0  0  0  0  0
    0.7908    4.2963    5.4310 F   0  0  0  0  0  0  0  0  0  0  0  0
  1  2  1  0  0  0  0
  2  3  1  0  0  0  0
  2  5  1  0  0  0  0
  3  4  1  0  0  0  0
  5  6  4  0  0  0  0
  5 10  4  0  0  0  0
  6  7  4  0  0  0  0
  7  8  4  0  0  0  0
  8  9  4  0  0  0  0
  9 10  4  0  0  0  0
 10 11  1  0  0  0  0
 11 12  4  0  0  0  0
 11 15  4  0  0  0  0
 12 13  1  0  0  0  0
 12 68  4  0  0  0  0
 13 14  1  0  0  0  0
 15 16  1  0  0  0  0
 15 67  4  0  0  0  0
 16 17  1  0  0  0  0
 17 18  1  0  0  0  0
 17 19  1  0  0  0  0
 17 20  1  0  0  0  0
 20 21  1  0  0  0  0
 21 22  1  0  0  0  0
 22 23  1  0  0  0  0
 22 66  2  0  0  0  0
 23 24  1  0  0  0  0
 23 65  1  0  0  0  0
 24 25  1  0  0  0  0
 25 26  1  0  0  0  0
 25 63  1  0  0  0  0
 26 27  1  0  0  0  0
 26 62  2  0  0  0  0
 27 28  1  0  0  0  0
 27 55  1  0  0  0  0
 28 29  1  0  0  0  0
 29 30  1  0  0  0  0
 29 54  2  0  0  0  0
 30 31  1  0  0  0  0
 30 34  1  0  0  0  0
 31 32  1  0  0  0  0
 31 33  1  0  0  0  0
 34 35  1  0  0  0  0
 34 53  1  0  0  0  0
 35 36  1  0  0  0  0
 35 52  2  0  0  0  0
 36 37  1  0  0  0  0
 36 51  1  0  0  0  0
 36 73  1  0  0  0  0
 37 38  1  0  0  0  0
 38 39  1  0  0  0  0
 39 40  1  0  0  0  0
 39 50  1  0  0  0  0
 40 41  1  0  0  0  0
 40 49  2  0  0  0  0
 41 42  1  0  0  0  0
 42 43  1  0  0  0  0
 43 44  1  0  0  0  0
 43 47  1  0  0  0  0
 43 48  1  0  0  0  0
 44 45  1  0  0  0  0
 44 46  1  0  0  0  0
 50 51  1  0  0  0  0
 55 56  1  0  0  0  0
 56 57  1  0  0  0  0
 56 61  1  0  0  0  0
 57 58  1  0  0  0  0
 58 59  1  0  0  0  0
 58 71  1  0  0  0  0
 59 60  1  0  0  0  0
 60 61  1  0  0  0  0
 63 64  1  0  0  0  0
 64 65  1  0  0  0  0
 67 68  4  0  0  0  0
 67 72  4  0  0  0  0
 68 69  4  0  0  0  0
 69 70  4  0  0  0  0
 70 71  4  0  0  0  0
 71 72  4  0  0  0  0
M  END
$$$$
