mol_bioactive_2
  PyMOL3.1          3D                             0

 73 79  0  0  0  0  0  0  0  0999 V2000
   -1.1905   -4.4328   -2.1716 C   0  0  0  0  0  0  0  0  0  0  0  0
   -0.9674   -3.9935   -3.5466 C   0  0  0  0  0  0  0  0  0  0  0  0
   -1.8889   -4.6209   -4.4683 O   0  0  0  0  0  0  0  0  0  0  0  0
   -2.3373   -3.8381   -5.5308 C   0  0  0  0  0  0  0  0  0  0  0  0
    0.4107   -4.1886   -4.0493 C   0  0  0  0  0  0  0  0  0  0  0  0
    0.6791   -5.3266   -4.6610 N   0  0  0  0  0  0  0  0  0  0  0  0
    1.8619   -5.5419   -5.2600 C   0  0  0  0  0  0  0  0  0  0  0  0
    2.8796   -4.5934   -5.2122 C   0  0  0  0  0  0  0  0  0  0  0  0
    2.6332   -3.3931   -4.5424 C   0  0  0  0  0  0  0  0  0  0  0  0
    1.3986   -3.2148   -3.9096 C   0  0  0  0  0  0  0  0  0  0  0  0
    1.1915   -2.0134   -3.1251 C   0  0  0  0  0  0  0  0  0  0  0  0
    0.6643   -0.8649   -3.6187 N   0  0  0  0  0  0  0  0  0  0  0  0
    0.1997   -0.6168   -5.0267 C   0  0  0  0  0  0  0  0  0  0  0  0
    1.0910    0.2638   -5.7829 C   0  0  0  0  0  0  0  0  0  0  0  0
    1.4286   -1.8809   -1.7252 C   0  0  0  0  0  0  0  0  0  0  0  0
    1.8930   -2.8953   -0.7112 C   0  0  0  0  0  0  0  0  0  0  0  0
    3.4577   -3.0242   -0.5337 C   0  0  0  0  0  0  0  0  0  0  0  0
    3.7419   -4.2716    0.3039 C   0  0  0  0  0  0  0  0  0  0  0  0
    4.1873   -3.2305   -1.7864 C   0  0  0  0  0  0  0  0  0  0  0  0
    4.0059   -1.8218    0.1294 C   0  0  0  0  0  0  0  0  0  0  0  0
    3.9156   -1.7395    1.6022 O   0  0  0  0  0  0  0  0  0  0  0  0
    4.8677   -1.0682    2.4131 C   0  0  0  0  0  0  0  0  0  0  0  0
    4.6161   -0.9900    3.8846 C   0  0  0  0  0  0  0  0  0  0  0  0
    3.3273   -1.4947    4.2217 N   0  0  0  0  0  0  0  0  0  0  0  0
    2.9635   -1.4876    5.5582 N   0  0  0  0  0  0  0  0  0  0  0  0
    1.7939   -0.9225    5.9560 C   0  0  0  0  0  0  0  0  0  0  0  0
    0.8738   -0.3115    4.9287 C   0  0  0  0  0  0  0  0  0  0  0  0
   -0.5039   -0.5679    5.3302 N   0  0  0  0  0  0  0  0  0  0  0  0
   -1.3058   -1.5102    4.8214 C   0  0  0  0  0  0  0  0  0  0  0  0
   -2.6730   -1.5993    5.4124 C   0  0  0  0  0  0  0  0  0  0  0  0
   -2.9473   -2.9440    6.1547 C   0  0  0  0  0  0  0  0  0  0  0  0
   -4.2651   -2.9507    6.8563 C   0  0  0  0  0  0  0  0  0  0  0  0
   -1.8231   -3.3135    7.0717 C   0  0  0  0  0  0  0  0  0  0  0  0
   -3.6655   -1.3184    4.3998 N   0  0  0  0  0  0  0  0  0  0  0  0
   -4.1320   -0.0341    4.2887 C   0  0  0  0  0  0  0  0  0  0  0  0
   -5.2278    0.4025    3.3558 C   0  0  0  0  0  0  0  0  0  0  0  0
   -4.6271    1.0001    2.1129 C   0  0  0  0  0  0  0  0  0  0  0  0
   -5.6943    1.3993    1.1700 C   0  0  0  0  0  0  0  0  0  0  0  0
   -6.6094    2.3331    1.8424 N   0  0  0  0  0  0  0  0  0  0  0  0
   -6.8930    3.5198    1.2399 C   0  0  0  0  0  0  0  0  0  0  0  0
   -7.3053    4.6882    1.9135 C   0  0  0  0  0  0  0  0  0  0  0  0
   -7.5629    5.7783    2.2189 C   0  0  0  0  0  0  0  0  0  0  0  0
   -7.7535    7.0949    2.6902 C   0  0  0  0  0  0  0  0  0  0  0  0
   -6.5810    7.8532    2.3577 N   0  0  0  0  0  0  0  0  0  0  0  0
   -5.4626    7.7860    3.1764 C   0  0  0  0  0  0  0  0  0  0  0  0
   -6.3934    8.2730    1.0199 C   0  0  0  0  0  0  0  0  0  0  0  0
   -8.0101    7.0754    4.1784 C   0  0  0  0  0  0  0  0  0  0  0  0
   -8.9635    7.7289    2.0492 C   0  0  0  0  0  0  0  0  0  0  0  0
   -6.7254    3.5978    0.0278 O   0  0  0  0  0  0  0  0  0  0  0  0
   -7.1706    1.9191    3.1022 C   0  0  0  0  0  0  0  0  0  0  0  0
   -6.1543    1.4326    4.0359 C   0  0  0  0  0  0  0  0  0  0  0  0
   -3.6239    0.8319    5.0223 O   0  0  0  0  0  0  0  0  0  0  0  0
   -4.0518   -2.3933    3.4863 C   0  0  0  0  0  0  0  0  0  0  0  0
   -0.9368   -2.1617    3.8723 O   0  0  0  0  0  0  0  0  0  0  0  0
    1.1680    1.2312    4.8269 C   0  0  0  0  0  0  0  0  0  0  0  0
    0.9737    2.0868    3.5489 C   0  0  0  0  0  0  0  0  0  0  0  0
    0.7812    1.2950    2.3205 C   0  0  0  0  0  0  0  0  0  0  0  0
    0.4483    2.0417    1.1306 N   0  0  0  0  0  0  0  0  0  0  0  0
    0.0108    3.3920    1.2506 C   0  0  0  0  0  0  0  0  0  0  0  0
   -0.2628    3.9090    2.6156 C   0  0  0  0  0  0  0  0  0  0  0  0
   -0.1247    2.9971    3.7387 O   0  0  0  0  0  0  0  0  0  0  0  0
    1.4852   -0.8584    7.1569 O   0  0  0  0  0  0  0  0  0  0  0  0
    3.8860   -2.1587    6.4742 C   0  0  0  0  0  0  0  0  0  0  0  0
    5.3274   -1.6866    6.2125 C   0  0  0  0  0  0  0  0  0  0  0  0
    5.6932   -1.7016    4.7274 C   0  0  0  0  0  0  0  0  0  0  0  0
    5.9259   -0.5308    2.0197 O   0  0  0  0  0  0  0  0  0  0  0  0
    1.0306   -0.5565   -1.4393 C   0  0  0  0  0  0  0  0  0  0  0  0
    0.5751    0.0310   -2.6123 C   0  0  0  0  0  0  0  0  0  0  0  0
    0.0765    1.3776   -2.5579 C   0  0  0  0  0  0  0  0  0  0  0  0
    0.0602    2.0272   -1.3093 C   0  0  0  0  0  0  0  0  0  0  0  0
    0.5092    1.4028   -0.1279 C   0  0  0  0  0  0  0  0  0  0  0  0
    1.0229    0.1011   -0.2048 C   0  0  0  0  0  0  0  0  0  0  0  0
   -6.0509   -0.6362    3.0102 F   0  0  0  0  0  0  0  0  0  0  0  0
  1  2  1  0  0  0  0
  2  3  1  0  0  0  0
  2  5  1  0  0  0  0
  3  4  1  0  0  0  0
  5  6  4  0  0  0  0
  5 10  4  0  0  0  0
  6  7  4  0  0  0  0
  7  8  4  0  0  0  0
  8  9  4  0  0  0  0
  9 10  4  0  0  0  0
 10 11  1  0  0  0  0
 11 12  4  0  0  0  0
 11 15  4  0  0  0  0
 12 13  1  0  0  0  0
 12 68  4  0  0  0  0
 13 14  1  0  0  0  0
 15 16  1  0  0  0  0
 15 67  4  0  0  0  0
 16 17  1  0  0  0  0
 17 18  1  0  0  0  0
 17 19  1  0  0  0  0
 17 20  1  0  0  0  0
 20 21  1  0  0  0  0
 21 22  1  0  0  0  0
 22 23  1  0  0  0  0
 22 66  2  0  0  0  0
 23 24  1  0  0  0  0
 23 65  1  0  0  0  0
 24 25  1  0  0  0  0
 25 26  1  0  0  0  0
 25 63  1  0  0  0  0
 26 27  1  0  0  0  0
 26 62  2  0  0  0  0
 27 28  1  0  0  0  0
 27 55  1  0  0  0  0
 28 29  1  0  0  0  0
 29 30  1  0  0  0  0
 29 54  2  0  0  0  0
 30 31  1  0  0  0  0
 30 34  1  0  0  0  0
 31 32  1  0  0  0  0
 31 33  1  0  0  0  0
 34 35  1  0  0  0  0
 34 53  1  0  0  0  0
 35 36  1  0  0  0  0
 35 52  2  0  0  0  0
 36 37  1  0  0  0  0
 36 51  1  0  0  0  0
 36 73  1  0  0  0  0
 37 38  1  0  0  0  0
 38 39  1  0  0  0  0
 39 40  1  0  0  0  0
 39 50  1  0  0  0  0
 40 41  1  0  0  0  0
 40 49  2  0  0  0  0
 41 42  1  0  0  0  0
 42 43  1  0  0  0  0
 43 44  1  0  0  0  0
 43 47  1  0  0  0  0
 43 48  1  0  0  0  0
 44 45  1  0  0  0  0
 44 46  1  0  0  0  0
 50 51  1  0  0  0  0
 55 56  1  0  0  0  0
 56 57  1  0  0  0  0
 56 61  1  0  0  0  0
 57 58  1  0  0  0  0
 58 59  1  0  0  0  0
 58 71  1  0  0  0  0
 59 60  1  0  0  0  0
 60 61  1  0  0  0  0
 63 64  1  0  0  0  0
 64 65  1  0  0  0  0
 67 68  4  0  0  0  0
 67 72  4  0  0  0  0
 68 69  4  0  0  0  0
 69 70  4  0  0  0  0
 70 71  4  0  0  0  0
 71 72  4  0  0  0  0
M  END
$$$$
