mol_ETKDG5_286
  PyMOL3.1          3D                             0

 73 79  0  0  0  0  0  0  0  0999 V2000
   -0.4400    2.6042   -3.4155 C   0  0  0  0  0  0  0  0  0  0  0  0
    0.1344    1.5876   -4.2898 C   0  0  0  0  0  0  0  0  0  0  0  0
   -0.6575    1.3039   -5.4522 O   0  0  0  0  0  0  0  0  0  0  0  0
   -1.6603    0.3357   -5.3166 C   0  0  0  0  0  0  0  0  0  0  0  0
    1.5069    1.9166   -4.7407 C   0  0  0  0  0  0  0  0  0  0  0  0
    1.6370    2.6720   -5.8130 N   0  0  0  0  0  0  0  0  0  0  0  0
    2.8463    2.9655   -6.3269 C   0  0  0  0  0  0  0  0  0  0  0  0
    4.0239    2.5160   -5.7275 C   0  0  0  0  0  0  0  0  0  0  0  0
    3.9136    1.7159   -4.5872 C   0  0  0  0  0  0  0  0  0  0  0  0
    2.6407    1.4533   -4.0731 C   0  0  0  0  0  0  0  0  0  0  0  0
    2.5331    0.6805   -2.8653 C   0  0  0  0  0  0  0  0  0  0  0  0
    2.3747   -0.6668   -2.8606 N   0  0  0  0  0  0  0  0  0  0  0  0
    2.3117   -1.5876   -4.0486 C   0  0  0  0  0  0  0  0  0  0  0  0
    3.5740   -2.3193   -4.2632 C   0  0  0  0  0  0  0  0  0  0  0  0
    2.4740    1.1992   -1.5409 C   0  0  0  0  0  0  0  0  0  0  0  0
    2.4680    2.6190   -1.0381 C   0  0  0  0  0  0  0  0  0  0  0  0
    3.8590    3.2987   -0.6924 C   0  0  0  0  0  0  0  0  0  0  0  0
    4.7422    3.5073   -1.8978 C   0  0  0  0  0  0  0  0  0  0  0  0
    3.5805    4.6847   -0.1878 C   0  0  0  0  0  0  0  0  0  0  0  0
    4.6195    2.5177    0.3426 C   0  0  0  0  0  0  0  0  0  0  0  0
    4.2654    2.8591    1.7744 O   0  0  0  0  0  0  0  0  0  0  0  0
    5.2253    2.9703    2.8267 C   0  0  0  0  0  0  0  0  0  0  0  0
    4.7523    3.3108    4.2217 C   0  0  0  0  0  0  0  0  0  0  0  0
    3.3552    3.6372    4.2262 N   0  0  0  0  0  0  0  0  0  0  0  0
    2.7907    3.9780    5.4483 N   0  0  0  0  0  0  0  0  0  0  0  0
    1.6903    3.3221    5.9265 C   0  0  0  0  0  0  0  0  0  0  0  0
    1.0791    2.2386    5.0926 C   0  0  0  0  0  0  0  0  0  0  0  0
   -0.3612    2.1953    5.2255 N   0  0  0  0  0  0  0  0  0  0  0  0
   -1.2032    2.7478    4.3527 C   0  0  0  0  0  0  0  0  0  0  0  0
   -2.6538    2.4515    4.5483 C   0  0  0  0  0  0  0  0  0  0  0  0
   -3.4653    3.6473    5.1369 C   0  0  0  0  0  0  0  0  0  0  0  0
   -4.8695    3.2907    5.4908 C   0  0  0  0  0  0  0  0  0  0  0  0
   -2.7475    4.3620    6.2298 C   0  0  0  0  0  0  0  0  0  0  0  0
   -3.1498    1.9974    3.2483 N   0  0  0  0  0  0  0  0  0  0  0  0
   -2.9674    0.6838    2.9109 C   0  0  0  0  0  0  0  0  0  0  0  0
   -3.2942    0.1022    1.5636 C   0  0  0  0  0  0  0  0  0  0  0  0
   -2.1815    0.5476    0.6400 C   0  0  0  0  0  0  0  0  0  0  0  0
   -2.3949    0.0563   -0.7421 C   0  0  0  0  0  0  0  0  0  0  0  0
   -2.5295   -1.4026   -0.7147 N   0  0  0  0  0  0  0  0  0  0  0  0
   -1.7465   -2.1680   -1.5289 C   0  0  0  0  0  0  0  0  0  0  0  0
   -1.5877   -3.5234   -1.3059 C   0  0  0  0  0  0  0  0  0  0  0  0
   -1.4158   -4.6692   -1.2490 C   0  0  0  0  0  0  0  0  0  0  0  0
   -1.3365   -6.0628   -1.0656 C   0  0  0  0  0  0  0  0  0  0  0  0
   -1.4778   -6.7332   -2.3258 N   0  0  0  0  0  0  0  0  0  0  0  0
   -2.6658   -6.5371   -3.0720 C   0  0  0  0  0  0  0  0  0  0  0  0
   -0.3367   -7.1259   -3.0670 C   0  0  0  0  0  0  0  0  0  0  0  0
   -2.4500   -6.5163   -0.1228 C   0  0  0  0  0  0  0  0  0  0  0  0
   -0.0301   -6.4202   -0.4012 C   0  0  0  0  0  0  0  0  0  0  0  0
   -1.1364   -1.6549   -2.4667 O   0  0  0  0  0  0  0  0  0  0  0  0
   -3.4954   -1.9572    0.2033 C   0  0  0  0  0  0  0  0  0  0  0  0
   -3.3404   -1.4337    1.5760 C   0  0  0  0  0  0  0  0  0  0  0  0
   -2.4604   -0.0660    3.7667 O   0  0  0  0  0  0  0  0  0  0  0  0
   -3.6882    2.9914    2.2982 C   0  0  0  0  0  0  0  0  0  0  0  0
   -0.7697    3.3431    3.3836 O   0  0  0  0  0  0  0  0  0  0  0  0
    1.6531    0.8360    5.5269 C   0  0  0  0  0  0  0  0  0  0  0  0
    1.1731   -0.3467    4.6522 C   0  0  0  0  0  0  0  0  0  0  0  0
    1.9882   -0.3096    3.4113 C   0  0  0  0  0  0  0  0  0  0  0  0
    1.7311   -1.4420    2.5580 N   0  0  0  0  0  0  0  0  0  0  0  0
    1.8098   -2.7497    3.2200 C   0  0  0  0  0  0  0  0  0  0  0  0
    1.0619   -2.7394    4.5555 C   0  0  0  0  0  0  0  0  0  0  0  0
    1.4424   -1.5766    5.3702 O   0  0  0  0  0  0  0  0  0  0  0  0
    1.2196    3.5670    7.0504 O   0  0  0  0  0  0  0  0  0  0  0  0
    3.4153    5.1007    6.1400 C   0  0  0  0  0  0  0  0  0  0  0  0
    4.9399    4.8893    6.2034 C   0  0  0  0  0  0  0  0  0  0  0  0
    5.5376    4.5006    4.8427 C   0  0  0  0  0  0  0  0  0  0  0  0
    6.4513    2.7931    2.6845 O   0  0  0  0  0  0  0  0  0  0  0  0
    2.2978    0.0510   -0.7510 C   0  0  0  0  0  0  0  0  0  0  0  0
    2.2404   -1.0568   -1.5930 C   0  0  0  0  0  0  0  0  0  0  0  0
    2.0260   -2.3569   -1.0308 C   0  0  0  0  0  0  0  0  0  0  0  0
    1.8582   -2.4345    0.3509 C   0  0  0  0  0  0  0  0  0  0  0  0
    1.9114   -1.3118    1.1798 C   0  0  0  0  0  0  0  0  0  0  0  0
    2.1344   -0.0394    0.6254 C   0  0  0  0  0  0  0  0  0  0  0  0
   -4.5360    0.5083    1.1219 F   0  0  0  0  0  0  0  0  0  0  0  0
  1  2  1  0  0  0  0
  2  3  1  0  0  0  0
  2  5  1  0  0  0  0
  3  4  1  0  0  0  0
  5  6  4  0  0  0  0
  5 10  4  0  0  0  0
  6  7  4  0  0  0  0
  7  8  4  0  0  0  0
  8  9  4  0  0  0  0
  9 10  4  0  0  0  0
 10 11  1  0  0  0  0
 11 12  4  0  0  0  0
 11 15  4  0  0  0  0
 12 13  1  0  0  0  0
 12 68  4  0  0  0  0
 13 14  1  0  0  0  0
 15 16  1  0  0  0  0
 15 67  4  0  0  0  0
 16 17  1  0  0  0  0
 17 18  1  0  0  0  0
 17 19  1  0  0  0  0
 17 20  1  0  0  0  0
 20 21  1  0  0  0  0
 21 22  1  0  0  0  0
 22 23  1  0  0  0  0
 22 66  2  0  0  0  0
 23 24  1  0  0  0  0
 23 65  1  0  0  0  0
 24 25  1  0  0  0  0
 25 26  1  0  0  0  0
 25 63  1  0  0  0  0
 26 27  1  0  0  0  0
 26 62  2  0  0  0  0
 27 28  1  0  0  0  0
 27 55  1  0  0  0  0
 28 29  1  0  0  0  0
 29 30  1  0  0  0  0
 29 54  2  0  0  0  0
 30 31  1  0  0  0  0
 30 34  1  0  0  0  0
 31 32  1  0  0  0  0
 31 33  1  0  0  0  0
 34 35  1  0  0  0  0
 34 53  1  0  0  0  0
 35 36  1  0  0  0  0
 35 52  2  0  0  0  0
 36 37  1  0  0  0  0
 36 51  1  0  0  0  0
 36 73  1  0  0  0  0
 37 38  1  0  0  0  0
 38 39  1  0  0  0  0
 39 40  1  0  0  0  0
 39 50  1  0  0  0  0
 40 41  1  0  0  0  0
 40 49  2  0  0  0  0
 41 42  1  0  0  0  0
 42 43  1  0  0  0  0
 43 44  1  0  0  0  0
 43 47  1  0  0  0  0
 43 48  1  0  0  0  0
 44 45  1  0  0  0  0
 44 46  1  0  0  0  0
 50 51  1  0  0  0  0
 55 56  1  0  0  0  0
 56 57  1  0  0  0  0
 56 61  1  0  0  0  0
 57 58  1  0  0  0  0
 58 59  1  0  0  0  0
 58 71  1  0  0  0  0
 59 60  1  0  0  0  0
 60 61  1  0  0  0  0
 63 64  1  0  0  0  0
 64 65  1  0  0  0  0
 67 68  4  0  0  0  0
 67 72  4  0  0  0  0
 68 69  4  0  0  0  0
 69 70  4  0  0  0  0
 70 71  4  0  0  0  0
 71 72  4  0  0  0  0
M  END
$$$$
