mol_ETKDG3_185
  PyMOL3.1          3D                             0

 73 79  0  0  0  0  0  0  0  0999 V2000
   -4.7627   -4.2821    1.4336 C   0  0  0  0  0  0  0  0  0  0  0  0
   -3.2810   -4.3746    1.3515 C   0  0  0  0  0  0  0  0  0  0  0  0
   -2.6081   -4.0685    2.5721 O   0  0  0  0  0  0  0  0  0  0  0  0
   -2.3666   -2.7109    2.8361 C   0  0  0  0  0  0  0  0  0  0  0  0
   -2.8271   -5.7183    0.9308 C   0  0  0  0  0  0  0  0  0  0  0  0
   -2.8487   -6.6868    1.8314 N   0  0  0  0  0  0  0  0  0  0  0  0
   -2.5081   -7.9515    1.5105 C   0  0  0  0  0  0  0  0  0  0  0  0
   -2.1234   -8.2986    0.2115 C   0  0  0  0  0  0  0  0  0  0  0  0
   -2.1012   -7.2937   -0.7604 C   0  0  0  0  0  0  0  0  0  0  0  0
   -2.4385   -5.9847   -0.3824 C   0  0  0  0  0  0  0  0  0  0  0  0
   -2.3546   -4.9475   -1.3835 C   0  0  0  0  0  0  0  0  0  0  0  0
   -3.3344   -4.6962   -2.2850 N   0  0  0  0  0  0  0  0  0  0  0  0
   -4.6723   -5.3742   -2.3881 C   0  0  0  0  0  0  0  0  0  0  0  0
   -4.7708   -6.2947   -3.5259 C   0  0  0  0  0  0  0  0  0  0  0  0
   -1.2931   -4.0150   -1.5317 C   0  0  0  0  0  0  0  0  0  0  0  0
   -0.0938   -3.7337   -0.6735 C   0  0  0  0  0  0  0  0  0  0  0  0
    1.2183   -4.5737   -0.8800 C   0  0  0  0  0  0  0  0  0  0  0  0
    1.0289   -6.0596   -0.6869 C   0  0  0  0  0  0  0  0  0  0  0  0
    2.1742   -4.1698    0.2176 C   0  0  0  0  0  0  0  0  0  0  0  0
    1.8375   -4.3377   -2.2346 C   0  0  0  0  0  0  0  0  0  0  0  0
    2.7175   -3.1190   -2.3354 O   0  0  0  0  0  0  0  0  0  0  0  0
    3.9537   -3.0789   -3.0364 C   0  0  0  0  0  0  0  0  0  0  0  0
    4.6958   -1.7646   -3.1254 C   0  0  0  0  0  0  0  0  0  0  0  0
    4.0851   -0.7630   -2.3106 N   0  0  0  0  0  0  0  0  0  0  0  0
    4.6787    0.4955   -2.2944 N   0  0  0  0  0  0  0  0  0  0  0  0
    3.9462    1.6218   -2.5386 C   0  0  0  0  0  0  0  0  0  0  0  0
    2.4766    1.4851   -2.7931 C   0  0  0  0  0  0  0  0  0  0  0  0
    1.7184    2.5417   -2.1667 N   0  0  0  0  0  0  0  0  0  0  0  0
    1.0209    2.3730   -1.0392 C   0  0  0  0  0  0  0  0  0  0  0  0
    0.1639    3.5150   -0.6037 C   0  0  0  0  0  0  0  0  0  0  0  0
    0.8090    4.3882    0.5255 C   0  0  0  0  0  0  0  0  0  0  0  0
    0.0320    5.6306    0.8145 C   0  0  0  0  0  0  0  0  0  0  0  0
    2.2642    4.6560    0.2979 C   0  0  0  0  0  0  0  0  0  0  0  0
   -1.1065    2.9292   -0.1837 N   0  0  0  0  0  0  0  0  0  0  0  0
   -2.0360    2.5899   -1.1440 C   0  0  0  0  0  0  0  0  0  0  0  0
   -3.3406    1.9098   -0.8392 C   0  0  0  0  0  0  0  0  0  0  0  0
   -3.0247    0.4473   -0.6182 C   0  0  0  0  0  0  0  0  0  0  0  0
   -4.2016   -0.3175   -0.2530 C   0  0  0  0  0  0  0  0  0  0  0  0
   -5.3144   -0.0840   -1.1630 N   0  0  0  0  0  0  0  0  0  0  0  0
   -6.1125   -1.1190   -1.5359 C   0  0  0  0  0  0  0  0  0  0  0  0
   -7.2846   -0.8585   -2.2108 C   0  0  0  0  0  0  0  0  0  0  0  0
   -8.3338   -0.7526   -2.6705 C   0  0  0  0  0  0  0  0  0  0  0  0
   -9.5700   -0.4058   -3.2408 C   0  0  0  0  0  0  0  0  0  0  0  0
  -10.6355   -0.7582   -2.3429 N   0  0  0  0  0  0  0  0  0  0  0  0
  -10.6949   -0.1248   -1.0778 C   0  0  0  0  0  0  0  0  0  0  0  0
  -11.3506   -1.9681   -2.4806 C   0  0  0  0  0  0  0  0  0  0  0  0
   -9.6099    1.0965   -3.5306 C   0  0  0  0  0  0  0  0  0  0  0  0
   -9.7334   -1.1042   -4.5759 C   0  0  0  0  0  0  0  0  0  0  0  0
   -5.8154   -2.2843   -1.2686 O   0  0  0  0  0  0  0  0  0  0  0  0
   -5.5649    1.2626   -1.6017 C   0  0  0  0  0  0  0  0  0  0  0  0
   -4.3810    2.0234   -1.9537 C   0  0  0  0  0  0  0  0  0  0  0  0
   -1.7578    2.8407   -2.3330 O   0  0  0  0  0  0  0  0  0  0  0  0
   -1.2959    2.5885    1.2375 C   0  0  0  0  0  0  0  0  0  0  0  0
    1.0215    1.2878   -0.4771 O   0  0  0  0  0  0  0  0  0  0  0  0
    2.1850    1.4905   -4.3431 C   0  0  0  0  0  0  0  0  0  0  0  0
    0.6886    1.3066   -4.6963 C   0  0  0  0  0  0  0  0  0  0  0  0
    0.3636   -0.1303   -4.5197 C   0  0  0  0  0  0  0  0  0  0  0  0
   -0.9885   -0.4364   -4.9071 N   0  0  0  0  0  0  0  0  0  0  0  0
   -1.3697    0.0484   -6.2432 C   0  0  0  0  0  0  0  0  0  0  0  0
   -0.9167    1.4977   -6.4619 C   0  0  0  0  0  0  0  0  0  0  0  0
    0.4888    1.6903   -6.0780 O   0  0  0  0  0  0  0  0  0  0  0  0
    4.4697    2.7476   -2.5850 O   0  0  0  0  0  0  0  0  0  0  0  0
    6.0928    0.5350   -1.9271 C   0  0  0  0  0  0  0  0  0  0  0  0
    6.8781   -0.5179   -2.7310 C   0  0  0  0  0  0  0  0  0  0  0  0
    6.1968   -1.8866   -2.7323 C   0  0  0  0  0  0  0  0  0  0  0  0
    4.4838   -4.0669   -3.5920 O   0  0  0  0  0  0  0  0  0  0  0  0
   -1.6797   -3.2432   -2.6418 C   0  0  0  0  0  0  0  0  0  0  0  0
   -2.9324   -3.6790   -3.0621 C   0  0  0  0  0  0  0  0  0  0  0  0
   -3.5791   -3.0025   -4.1490 C   0  0  0  0  0  0  0  0  0  0  0  0
   -2.9024   -1.9296   -4.7308 C   0  0  0  0  0  0  0  0  0  0  0  0
   -1.6406   -1.5165   -4.3013 C   0  0  0  0  0  0  0  0  0  0  0  0
   -1.0153   -2.1775   -3.2284 C   0  0  0  0  0  0  0  0  0  0  0  0
   -3.9444    2.4865    0.2567 F   0  0  0  0  0  0  0  0  0  0  0  0
  1  2  1  0  0  0  0
  2  3  1  0  0  0  0
  2  5  1  0  0  0  0
  3  4  1  0  0  0  0
  5  6  4  0  0  0  0
  5 10  4  0  0  0  0
  6  7  4  0  0  0  0
  7  8  4  0  0  0  0
  8  9  4  0  0  0  0
  9 10  4  0  0  0  0
 10 11  1  0  0  0  0
 11 12  4  0  0  0  0
 11 15  4  0  0  0  0
 12 13  1  0  0  0  0
 12 68  4  0  0  0  0
 13 14  1  0  0  0  0
 15 16  1  0  0  0  0
 15 67  4  0  0  0  0
 16 17  1  0  0  0  0
 17 18  1  0  0  0  0
 17 19  1  0  0  0  0
 17 20  1  0  0  0  0
 20 21  1  0  0  0  0
 21 22  1  0  0  0  0
 22 23  1  0  0  0  0
 22 66  2  0  0  0  0
 23 24  1  0  0  0  0
 23 65  1  0  0  0  0
 24 25  1  0  0  0  0
 25 26  1  0  0  0  0
 25 63  1  0  0  0  0
 26 27  1  0  0  0  0
 26 62  2  0  0  0  0
 27 28  1  0  0  0  0
 27 55  1  0  0  0  0
 28 29  1  0  0  0  0
 29 30  1  0  0  0  0
 29 54  2  0  0  0  0
 30 31  1  0  0  0  0
 30 34  1  0  0  0  0
 31 32  1  0  0  0  0
 31 33  1  0  0  0  0
 34 35  1  0  0  0  0
 34 53  1  0  0  0  0
 35 36  1  0  0  0  0
 35 52  2  0  0  0  0
 36 37  1  0  0  0  0
 36 51  1  0  0  0  0
 36 73  1  0  0  0  0
 37 38  1  0  0  0  0
 38 39  1  0  0  0  0
 39 40  1  0  0  0  0
 39 50  1  0  0  0  0
 40 41  1  0  0  0  0
 40 49  2  0  0  0  0
 41 42  1  0  0  0  0
 42 43  1  0  0  0  0
 43 44  1  0  0  0  0
 43 47  1  0  0  0  0
 43 48  1  0  0  0  0
 44 45  1  0  0  0  0
 44 46  1  0  0  0  0
 50 51  1  0  0  0  0
 55 56  1  0  0  0  0
 56 57  1  0  0  0  0
 56 61  1  0  0  0  0
 57 58  1  0  0  0  0
 58 59  1  0  0  0  0
 58 71  1  0  0  0  0
 59 60  1  0  0  0  0
 60 61  1  0  0  0  0
 63 64  1  0  0  0  0
 64 65  1  0  0  0  0
 67 68  4  0  0  0  0
 67 72  4  0  0  0  0
 68 69  4  0  0  0  0
 69 70  4  0  0  0  0
 70 71  4  0  0  0  0
 71 72  4  0  0  0  0
M  END
$$$$
