mol_ETKDG5_272
  PyMOL3.1          3D                             0

 73 79  0  0  0  0  0  0  0  0999 V2000
    1.2218    3.6354   -1.0307 C   0  0  0  0  0  0  0  0  0  0  0  0
    0.0421    2.7596   -1.2447 C   0  0  0  0  0  0  0  0  0  0  0  0
   -0.4374    2.7298   -2.5835 O   0  0  0  0  0  0  0  0  0  0  0  0
    0.2309    1.9032   -3.4938 C   0  0  0  0  0  0  0  0  0  0  0  0
   -1.1052    3.1582   -0.4155 C   0  0  0  0  0  0  0  0  0  0  0  0
   -1.7493    4.2577   -0.7592 N   0  0  0  0  0  0  0  0  0  0  0  0
   -2.7868    4.7157   -0.0295 C   0  0  0  0  0  0  0  0  0  0  0  0
   -3.2174    4.0546    1.1223 C   0  0  0  0  0  0  0  0  0  0  0  0
   -2.5427    2.8948    1.5065 C   0  0  0  0  0  0  0  0  0  0  0  0
   -1.4879    2.4380    0.7131 C   0  0  0  0  0  0  0  0  0  0  0  0
   -0.8278    1.2188    1.1146 C   0  0  0  0  0  0  0  0  0  0  0  0
    0.0495    1.1631    2.1376 N   0  0  0  0  0  0  0  0  0  0  0  0
    0.5634    2.3040    2.9694 C   0  0  0  0  0  0  0  0  0  0  0  0
   -0.0008    2.3464    4.3125 C   0  0  0  0  0  0  0  0  0  0  0  0
   -0.9581   -0.0516    0.4998 C   0  0  0  0  0  0  0  0  0  0  0  0
   -1.6920   -0.4808   -0.7395 C   0  0  0  0  0  0  0  0  0  0  0  0
   -3.2162   -0.8709   -0.5312 C   0  0  0  0  0  0  0  0  0  0  0  0
   -4.0619    0.3076   -0.1203 C   0  0  0  0  0  0  0  0  0  0  0  0
   -3.7713   -1.2990   -1.8628 C   0  0  0  0  0  0  0  0  0  0  0  0
   -3.3653   -1.9710    0.4809 C   0  0  0  0  0  0  0  0  0  0  0  0
   -3.1620   -3.3604   -0.0752 O   0  0  0  0  0  0  0  0  0  0  0  0
   -4.0024   -4.4753    0.2197 C   0  0  0  0  0  0  0  0  0  0  0  0
   -3.6876   -5.8225   -0.3997 C   0  0  0  0  0  0  0  0  0  0  0  0
   -2.7889   -5.6592   -1.5033 N   0  0  0  0  0  0  0  0  0  0  0  0
   -2.4481   -6.7995   -2.2196 N   0  0  0  0  0  0  0  0  0  0  0  0
   -1.1447   -7.1468   -2.4162 C   0  0  0  0  0  0  0  0  0  0  0  0
   -0.0890   -6.2981   -1.7998 C   0  0  0  0  0  0  0  0  0  0  0  0
    1.0409   -6.1017   -2.6844 N   0  0  0  0  0  0  0  0  0  0  0  0
    1.2054   -4.9787   -3.3930 C   0  0  0  0  0  0  0  0  0  0  0  0
    2.4976   -4.8526   -4.1241 C   0  0  0  0  0  0  0  0  0  0  0  0
    2.4690   -5.2071   -5.6276 C   0  0  0  0  0  0  0  0  0  0  0  0
    3.8144   -5.5309   -6.1791 C   0  0  0  0  0  0  0  0  0  0  0  0
    1.3827   -6.1198   -6.0496 C   0  0  0  0  0  0  0  0  0  0  0  0
    2.9646   -3.4929   -3.8968 N   0  0  0  0  0  0  0  0  0  0  0  0
    3.6298   -3.2300   -2.7319 C   0  0  0  0  0  0  0  0  0  0  0  0
    4.0796   -1.8649   -2.2989 C   0  0  0  0  0  0  0  0  0  0  0  0
    5.1618   -1.9066   -1.2159 C   0  0  0  0  0  0  0  0  0  0  0  0
    5.4683   -0.5264   -0.7214 C   0  0  0  0  0  0  0  0  0  0  0  0
    4.2222    0.1677   -0.3521 N   0  0  0  0  0  0  0  0  0  0  0  0
    3.9953    0.7626    0.8501 C   0  0  0  0  0  0  0  0  0  0  0  0
    4.6390    0.3901    2.0059 C   0  0  0  0  0  0  0  0  0  0  0  0
    5.1320    0.2093    3.0320 C   0  0  0  0  0  0  0  0  0  0  0  0
    5.8279   -0.1532    4.1867 C   0  0  0  0  0  0  0  0  0  0  0  0
    7.1167    0.4658    4.2166 N   0  0  0  0  0  0  0  0  0  0  0  0
    8.0620    0.0746    5.1754 C   0  0  0  0  0  0  0  0  0  0  0  0
    7.2690    1.7842    3.7049 C   0  0  0  0  0  0  0  0  0  0  0  0
    5.9514   -1.6678    4.1951 C   0  0  0  0  0  0  0  0  0  0  0  0
    5.0494    0.2511    5.4303 C   0  0  0  0  0  0  0  0  0  0  0  0
    3.1224    1.6456    0.9337 O   0  0  0  0  0  0  0  0  0  0  0  0
    3.1839    0.1981   -1.3226 C   0  0  0  0  0  0  0  0  0  0  0  0
    2.8437   -1.1769   -1.7464 C   0  0  0  0  0  0  0  0  0  0  0  0
    3.8346   -4.1860   -1.9545 O   0  0  0  0  0  0  0  0  0  0  0  0
    2.5919   -2.4389   -4.8646 C   0  0  0  0  0  0  0  0  0  0  0  0
    0.3875   -4.0734   -3.3215 O   0  0  0  0  0  0  0  0  0  0  0  0
    0.3968   -6.9452   -0.4520 C   0  0  0  0  0  0  0  0  0  0  0  0
    1.3773   -6.0651    0.3574 C   0  0  0  0  0  0  0  0  0  0  0  0
    0.5826   -4.9706    0.9608 C   0  0  0  0  0  0  0  0  0  0  0  0
    1.3732   -4.1585    1.8398 N   0  0  0  0  0  0  0  0  0  0  0  0
    2.1415   -4.8851    2.8511 C   0  0  0  0  0  0  0  0  0  0  0  0
    2.8509   -6.1048    2.2414 C   0  0  0  0  0  0  0  0  0  0  0  0
    1.9399   -6.8925    1.4061 O   0  0  0  0  0  0  0  0  0  0  0  0
   -0.8211   -8.1632   -3.0507 O   0  0  0  0  0  0  0  0  0  0  0  0
   -3.5578   -7.5444   -2.8073 C   0  0  0  0  0  0  0  0  0  0  0  0
   -4.6055   -7.8083   -1.7050 C   0  0  0  0  0  0  0  0  0  0  0  0
   -4.9631   -6.5413   -0.9281 C   0  0  0  0  0  0  0  0  0  0  0  0
   -4.9981   -4.4262    0.9761 O   0  0  0  0  0  0  0  0  0  0  0  0
   -0.1334   -0.8793    1.2683 C   0  0  0  0  0  0  0  0  0  0  0  0
    0.4592   -0.1020    2.2541 C   0  0  0  0  0  0  0  0  0  0  0  0
    1.3789   -0.7037    3.1590 C   0  0  0  0  0  0  0  0  0  0  0  0
    1.6596   -2.0525    2.9775 C   0  0  0  0  0  0  0  0  0  0  0  0
    1.0569   -2.8124    1.9838 C   0  0  0  0  0  0  0  0  0  0  0  0
    0.1444   -2.2243    1.1039 C   0  0  0  0  0  0  0  0  0  0  0  0
    4.6164   -1.1456   -3.3503 F   0  0  0  0  0  0  0  0  0  0  0  0
  1  2  1  0  0  0  0
  2  3  1  0  0  0  0
  2  5  1  0  0  0  0
  3  4  1  0  0  0  0
  5  6  4  0  0  0  0
  5 10  4  0  0  0  0
  6  7  4  0  0  0  0
  7  8  4  0  0  0  0
  8  9  4  0  0  0  0
  9 10  4  0  0  0  0
 10 11  1  0  0  0  0
 11 12  4  0  0  0  0
 11 15  4  0  0  0  0
 12 13  1  0  0  0  0
 12 68  4  0  0  0  0
 13 14  1  0  0  0  0
 15 16  1  0  0  0  0
 15 67  4  0  0  0  0
 16 17  1  0  0  0  0
 17 18  1  0  0  0  0
 17 19  1  0  0  0  0
 17 20  1  0  0  0  0
 20 21  1  0  0  0  0
 21 22  1  0  0  0  0
 22 23  1  0  0  0  0
 22 66  2  0  0  0  0
 23 24  1  0  0  0  0
 23 65  1  0  0  0  0
 24 25  1  0  0  0  0
 25 26  1  0  0  0  0
 25 63  1  0  0  0  0
 26 27  1  0  0  0  0
 26 62  2  0  0  0  0
 27 28  1  0  0  0  0
 27 55  1  0  0  0  0
 28 29  1  0  0  0  0
 29 30  1  0  0  0  0
 29 54  2  0  0  0  0
 30 31  1  0  0  0  0
 30 34  1  0  0  0  0
 31 32  1  0  0  0  0
 31 33  1  0  0  0  0
 34 35  1  0  0  0  0
 34 53  1  0  0  0  0
 35 36  1  0  0  0  0
 35 52  2  0  0  0  0
 36 37  1  0  0  0  0
 36 51  1  0  0  0  0
 36 73  1  0  0  0  0
 37 38  1  0  0  0  0
 38 39  1  0  0  0  0
 39 40  1  0  0  0  0
 39 50  1  0  0  0  0
 40 41  1  0  0  0  0
 40 49  2  0  0  0  0
 41 42  1  0  0  0  0
 42 43  1  0  0  0  0
 43 44  1  0  0  0  0
 43 47  1  0  0  0  0
 43 48  1  0  0  0  0
 44 45  1  0  0  0  0
 44 46  1  0  0  0  0
 50 51  1  0  0  0  0
 55 56  1  0  0  0  0
 56 57  1  0  0  0  0
 56 61  1  0  0  0  0
 57 58  1  0  0  0  0
 58 59  1  0  0  0  0
 58 71  1  0  0  0  0
 59 60  1  0  0  0  0
 60 61  1  0  0  0  0
 63 64  1  0  0  0  0
 64 65  1  0  0  0  0
 67 68  4  0  0  0  0
 67 72  4  0  0  0  0
 68 69  4  0  0  0  0
 69 70  4  0  0  0  0
 70 71  4  0  0  0  0
 71 72  4  0  0  0  0
M  END
$$$$
