mol_bioactive_41
  PyMOL3.1          3D                             0

 73 79  0  0  0  0  0  0  0  0999 V2000
   -0.9186   -2.5810   -3.5598 C   0  0  0  0  0  0  0  0  0  0  0  0
    0.3972   -1.9847   -3.8889 C   0  0  0  0  0  0  0  0  0  0  0  0
    0.6051   -1.8173   -5.3152 O   0  0  0  0  0  0  0  0  0  0  0  0
    0.4180   -0.5415   -5.8502 C   0  0  0  0  0  0  0  0  0  0  0  0
    1.5364   -2.8019   -3.3746 C   0  0  0  0  0  0  0  0  0  0  0  0
    1.8866   -3.8723   -4.0678 N   0  0  0  0  0  0  0  0  0  0  0  0
    2.9337   -4.6409   -3.7016 C   0  0  0  0  0  0  0  0  0  0  0  0
    3.6844   -4.3616   -2.5555 C   0  0  0  0  0  0  0  0  0  0  0  0
    3.3306   -3.2387   -1.8009 C   0  0  0  0  0  0  0  0  0  0  0  0
    2.2261   -2.4789   -2.1987 C   0  0  0  0  0  0  0  0  0  0  0  0
    1.8494   -1.3585   -1.3699 C   0  0  0  0  0  0  0  0  0  0  0  0
    2.2937   -0.0964   -1.5912 N   0  0  0  0  0  0  0  0  0  0  0  0
    3.2165    0.3801   -2.6876 C   0  0  0  0  0  0  0  0  0  0  0  0
    4.6007    0.5655   -2.2027 C   0  0  0  0  0  0  0  0  0  0  0  0
    0.9297   -1.3914   -0.2770 C   0  0  0  0  0  0  0  0  0  0  0  0
    0.0591   -2.4892    0.2899 C   0  0  0  0  0  0  0  0  0  0  0  0
    0.7126   -3.4504    1.3766 C   0  0  0  0  0  0  0  0  0  0  0  0
   -0.4022   -4.2646    1.9993 C   0  0  0  0  0  0  0  0  0  0  0  0
    1.5970   -4.4739    0.7415 C   0  0  0  0  0  0  0  0  0  0  0  0
    1.4682   -2.7104    2.4700 C   0  0  0  0  0  0  0  0  0  0  0  0
    0.6828   -2.3391    3.7008 O   0  0  0  0  0  0  0  0  0  0  0  0
    1.1885   -2.3642    5.0363 C   0  0  0  0  0  0  0  0  0  0  0  0
    0.2654   -1.9624    6.1879 C   0  0  0  0  0  0  0  0  0  0  0  0
   -1.1173   -2.0869    5.8036 N   0  0  0  0  0  0  0  0  0  0  0  0
   -2.0919   -1.8139    6.7692 N   0  0  0  0  0  0  0  0  0  0  0  0
   -3.0595   -0.8586    6.5585 C   0  0  0  0  0  0  0  0  0  0  0  0
   -3.0161   -0.0120    5.3067 C   0  0  0  0  0  0  0  0  0  0  0  0
   -4.3620    0.2405    4.7828 N   0  0  0  0  0  0  0  0  0  0  0  0
   -4.9251   -0.3899    3.7448 C   0  0  0  0  0  0  0  0  0  0  0  0
   -6.2507    0.1335    3.2764 C   0  0  0  0  0  0  0  0  0  0  0  0
   -7.4970   -0.6320    3.7762 C   0  0  0  0  0  0  0  0  0  0  0  0
   -8.6959    0.2159    4.0231 C   0  0  0  0  0  0  0  0  0  0  0  0
   -7.2799   -1.7378    4.7296 C   0  0  0  0  0  0  0  0  0  0  0  0
   -6.1724    0.2114    1.8134 N   0  0  0  0  0  0  0  0  0  0  0  0
   -5.5014    1.2813    1.2583 C   0  0  0  0  0  0  0  0  0  0  0  0
   -5.1917    1.4487   -0.2116 C   0  0  0  0  0  0  0  0  0  0  0  0
   -4.7957    2.8956   -0.5660 C   0  0  0  0  0  0  0  0  0  0  0  0
   -4.2856    2.9953   -1.9870 C   0  0  0  0  0  0  0  0  0  0  0  0
   -3.2218    1.9925   -2.2121 N   0  0  0  0  0  0  0  0  0  0  0  0
   -1.9321    2.2862   -2.6280 C   0  0  0  0  0  0  0  0  0  0  0  0
   -1.3721    3.5556   -2.5129 C   0  0  0  0  0  0  0  0  0  0  0  0
   -0.8293    4.5878   -2.5039 C   0  0  0  0  0  0  0  0  0  0  0  0
   -0.3417    5.9189   -2.3983 C   0  0  0  0  0  0  0  0  0  0  0  0
   -0.3126    6.5392   -3.6858 N   0  0  0  0  0  0  0  0  0  0  0  0
    0.6784    6.1764   -4.6243 C   0  0  0  0  0  0  0  0  0  0  0  0
   -1.4259    7.2669   -4.1691 C   0  0  0  0  0  0  0  0  0  0  0  0
    1.0498    5.9327   -1.7839 C   0  0  0  0  0  0  0  0  0  0  0  0
   -1.2319    6.6953   -1.4453 C   0  0  0  0  0  0  0  0  0  0  0  0
   -1.2047    1.3782   -3.0654 O   0  0  0  0  0  0  0  0  0  0  0  0
   -3.5801    0.6329   -1.9194 C   0  0  0  0  0  0  0  0  0  0  0  0
   -4.0130    0.5224   -0.4891 C   0  0  0  0  0  0  0  0  0  0  0  0
   -5.0856    2.1555    2.0391 O   0  0  0  0  0  0  0  0  0  0  0  0
   -6.6959   -0.9110    1.0057 C   0  0  0  0  0  0  0  0  0  0  0  0
   -4.3028   -1.2515    3.1371 O   0  0  0  0  0  0  0  0  0  0  0  0
   -2.3110    1.3509    5.6759 C   0  0  0  0  0  0  0  0  0  0  0  0
   -1.4424    2.2234    4.7418 C   0  0  0  0  0  0  0  0  0  0  0  0
   -1.0582    1.5919    3.4869 C   0  0  0  0  0  0  0  0  0  0  0  0
   -0.3977    2.4539    2.5368 N   0  0  0  0  0  0  0  0  0  0  0  0
   -0.3775    3.8719    2.7513 C   0  0  0  0  0  0  0  0  0  0  0  0
   -1.3227    4.4177    3.7527 C   0  0  0  0  0  0  0  0  0  0  0  0
   -2.0641    3.4960    4.5800 O   0  0  0  0  0  0  0  0  0  0  0  0
   -3.9283   -0.6277    7.4120 O   0  0  0  0  0  0  0  0  0  0  0  0
   -2.0214   -2.6344    7.9782 C   0  0  0  0  0  0  0  0  0  0  0  0
   -0.5737   -2.5594    8.5365 C   0  0  0  0  0  0  0  0  0  0  0  0
    0.4851   -2.8303    7.4638 C   0  0  0  0  0  0  0  0  0  0  0  0
    2.3591   -2.6995    5.3215 O   0  0  0  0  0  0  0  0  0  0  0  0
    0.9136   -0.0563    0.1709 C   0  0  0  0  0  0  0  0  0  0  0  0
    1.7521    0.6981   -0.6557 C   0  0  0  0  0  0  0  0  0  0  0  0
    1.8751    2.1056   -0.4226 C   0  0  0  0  0  0  0  0  0  0  0  0
    1.1460    2.6517    0.6434 C   0  0  0  0  0  0  0  0  0  0  0  0
    0.3087    1.8777    1.4677 C   0  0  0  0  0  0  0  0  0  0  0  0
    0.1824    0.5007    1.2156 C   0  0  0  0  0  0  0  0  0  0  0  0
   -6.2793    1.1213   -1.0053 F   0  0  0  0  0  0  0  0  0  0  0  0
  1  2  1  0  0  0  0
  2  3  1  0  0  0  0
  2  5  1  0  0  0  0
  3  4  1  0  0  0  0
  5  6  4  0  0  0  0
  5 10  4  0  0  0  0
  6  7  4  0  0  0  0
  7  8  4  0  0  0  0
  8  9  4  0  0  0  0
  9 10  4  0  0  0  0
 10 11  1  0  0  0  0
 11 12  4  0  0  0  0
 11 15  4  0  0  0  0
 12 13  1  0  0  0  0
 12 68  4  0  0  0  0
 13 14  1  0  0  0  0
 15 16  1  0  0  0  0
 15 67  4  0  0  0  0
 16 17  1  0  0  0  0
 17 18  1  0  0  0  0
 17 19  1  0  0  0  0
 17 20  1  0  0  0  0
 20 21  1  0  0  0  0
 21 22  1  0  0  0  0
 22 23  1  0  0  0  0
 22 66  2  0  0  0  0
 23 24  1  0  0  0  0
 23 65  1  0  0  0  0
 24 25  1  0  0  0  0
 25 26  1  0  0  0  0
 25 63  1  0  0  0  0
 26 27  1  0  0  0  0
 26 62  2  0  0  0  0
 27 28  1  0  0  0  0
 27 55  1  0  0  0  0
 28 29  1  0  0  0  0
 29 30  1  0  0  0  0
 29 54  2  0  0  0  0
 30 31  1  0  0  0  0
 30 34  1  0  0  0  0
 31 32  1  0  0  0  0
 31 33  1  0  0  0  0
 34 35  1  0  0  0  0
 34 53  1  0  0  0  0
 35 36  1  0  0  0  0
 35 52  2  0  0  0  0
 36 37  1  0  0  0  0
 36 51  1  0  0  0  0
 36 73  1  0  0  0  0
 37 38  1  0  0  0  0
 38 39  1  0  0  0  0
 39 40  1  0  0  0  0
 39 50  1  0  0  0  0
 40 41  1  0  0  0  0
 40 49  2  0  0  0  0
 41 42  1  0  0  0  0
 42 43  1  0  0  0  0
 43 44  1  0  0  0  0
 43 47  1  0  0  0  0
 43 48  1  0  0  0  0
 44 45  1  0  0  0  0
 44 46  1  0  0  0  0
 50 51  1  0  0  0  0
 55 56  1  0  0  0  0
 56 57  1  0  0  0  0
 56 61  1  0  0  0  0
 57 58  1  0  0  0  0
 58 59  1  0  0  0  0
 58 71  1  0  0  0  0
 59 60  1  0  0  0  0
 60 61  1  0  0  0  0
 63 64  1  0  0  0  0
 64 65  1  0  0  0  0
 67 68  4  0  0  0  0
 67 72  4  0  0  0  0
 68 69  4  0  0  0  0
 69 70  4  0  0  0  0
 70 71  4  0  0  0  0
 71 72  4  0  0  0  0
M  END
$$$$
