mol_ETKDG1_74
  PyMOL3.1          3D                             0

 73 79  0  0  0  0  0  0  0  0999 V2000
   -1.8970   -3.6635   -1.2445 C   0  0  0  0  0  0  0  0  0  0  0  0
   -0.5317   -3.6316   -1.8090 C   0  0  0  0  0  0  0  0  0  0  0  0
    0.2975   -4.7372   -1.4314 O   0  0  0  0  0  0  0  0  0  0  0  0
    0.9675   -4.6475   -0.2027 C   0  0  0  0  0  0  0  0  0  0  0  0
   -0.5356   -3.6070   -3.2818 C   0  0  0  0  0  0  0  0  0  0  0  0
   -0.6176   -4.7689   -3.9068 N   0  0  0  0  0  0  0  0  0  0  0  0
   -0.6439   -4.8419   -5.2522 C   0  0  0  0  0  0  0  0  0  0  0  0
   -0.5979   -3.6941   -6.0455 C   0  0  0  0  0  0  0  0  0  0  0  0
   -0.5254   -2.4532   -5.4065 C   0  0  0  0  0  0  0  0  0  0  0  0
   -0.4861   -2.4136   -4.0034 C   0  0  0  0  0  0  0  0  0  0  0  0
   -0.3909   -1.1189   -3.3718 C   0  0  0  0  0  0  0  0  0  0  0  0
   -1.4285   -0.2390   -3.3089 N   0  0  0  0  0  0  0  0  0  0  0  0
   -2.8336   -0.4361   -3.7946 C   0  0  0  0  0  0  0  0  0  0  0  0
   -3.1353    0.2975   -5.0228 C   0  0  0  0  0  0  0  0  0  0  0  0
    0.7501   -0.6027   -2.7041 C   0  0  0  0  0  0  0  0  0  0  0  0
    2.0927   -1.2309   -2.3965 C   0  0  0  0  0  0  0  0  0  0  0  0
    3.2214   -1.0730   -3.5024 C   0  0  0  0  0  0  0  0  0  0  0  0
    4.4212   -1.9191   -3.0668 C   0  0  0  0  0  0  0  0  0  0  0  0
    2.8121   -1.6336   -4.8145 C   0  0  0  0  0  0  0  0  0  0  0  0
    3.6595    0.3767   -3.6893 C   0  0  0  0  0  0  0  0  0  0  0  0
    4.5719    0.9117   -2.6136 O   0  0  0  0  0  0  0  0  0  0  0  0
    5.7128    1.7342   -2.8452 C   0  0  0  0  0  0  0  0  0  0  0  0
    6.5218    2.2279   -1.6475 C   0  0  0  0  0  0  0  0  0  0  0  0
    6.1375    1.5073   -0.4690 N   0  0  0  0  0  0  0  0  0  0  0  0
    6.8101    1.8058    0.7173 N   0  0  0  0  0  0  0  0  0  0  0  0
    6.1278    2.1822    1.8402 C   0  0  0  0  0  0  0  0  0  0  0  0
    4.6370    2.3000    1.7413 C   0  0  0  0  0  0  0  0  0  0  0  0
    3.9458    1.8588    2.9316 N   0  0  0  0  0  0  0  0  0  0  0  0
    3.2828    0.6962    3.0177 C   0  0  0  0  0  0  0  0  0  0  0  0
    2.4591    0.5105    4.2464 C   0  0  0  0  0  0  0  0  0  0  0  0
    3.1461   -0.2905    5.3918 C   0  0  0  0  0  0  0  0  0  0  0  0
    2.3802   -0.2121    6.6713 C   0  0  0  0  0  0  0  0  0  0  0  0
    4.5913    0.0771    5.5709 C   0  0  0  0  0  0  0  0  0  0  0  0
    1.1788   -0.0702    3.8390 N   0  0  0  0  0  0  0  0  0  0  0  0
    0.1772    0.7833    3.4244 C   0  0  0  0  0  0  0  0  0  0  0  0
   -1.1943    0.3495    2.9749 C   0  0  0  0  0  0  0  0  0  0  0  0
   -2.2367    1.4671    3.1116 C   0  0  0  0  0  0  0  0  0  0  0  0
   -3.5568    1.0214    2.5912 C   0  0  0  0  0  0  0  0  0  0  0  0
   -3.4159    0.5110    1.2168 N   0  0  0  0  0  0  0  0  0  0  0  0
   -4.1866    0.9775    0.1877 C   0  0  0  0  0  0  0  0  0  0  0  0
   -4.8731    2.1751    0.2956 C   0  0  0  0  0  0  0  0  0  0  0  0
   -5.5160    3.1330    0.3013 C   0  0  0  0  0  0  0  0  0  0  0  0
   -6.1924    4.3632    0.5010 C   0  0  0  0  0  0  0  0  0  0  0  0
   -7.5240    4.2933    0.0026 N   0  0  0  0  0  0  0  0  0  0  0  0
   -8.6195    4.0745    0.8670 C   0  0  0  0  0  0  0  0  0  0  0  0
   -7.7913    4.2555   -1.3799 C   0  0  0  0  0  0  0  0  0  0  0  0
   -5.4310    5.4922   -0.1709 C   0  0  0  0  0  0  0  0  0  0  0  0
   -6.1997    4.6846    1.9886 C   0  0  0  0  0  0  0  0  0  0  0  0
   -4.2312    0.3508   -0.8787 O   0  0  0  0  0  0  0  0  0  0  0  0
   -2.4172   -0.4981    0.9923 C   0  0  0  0  0  0  0  0  0  0  0  0
   -1.0920   -0.0430    1.5050 C   0  0  0  0  0  0  0  0  0  0  0  0
    0.4331    2.0049    3.4094 O   0  0  0  0  0  0  0  0  0  0  0  0
    1.0611   -1.5379    3.7619 C   0  0  0  0  0  0  0  0  0  0  0  0
    3.2815   -0.0927    2.0858 O   0  0  0  0  0  0  0  0  0  0  0  0
    4.2466    3.8068    1.4762 C   0  0  0  0  0  0  0  0  0  0  0  0
    2.7342    4.0282    1.2657 C   0  0  0  0  0  0  0  0  0  0  0  0
    2.4055    3.5115   -0.0847 C   0  0  0  0  0  0  0  0  0  0  0  0
    1.0280    3.7388   -0.4162 N   0  0  0  0  0  0  0  0  0  0  0  0
    0.5554    5.1149   -0.2470 C   0  0  0  0  0  0  0  0  0  0  0  0
    1.0332    5.7018    1.0921 C   0  0  0  0  0  0  0  0  0  0  0  0
    2.4623    5.4517    1.3224 O   0  0  0  0  0  0  0  0  0  0  0  0
    6.7018    2.4755    2.9044 O   0  0  0  0  0  0  0  0  0  0  0  0
    8.2616    1.6189    0.6774 C   0  0  0  0  0  0  0  0  0  0  0  0
    8.8294    2.3656   -0.5502 C   0  0  0  0  0  0  0  0  0  0  0  0
    8.0591    2.0348   -1.8448 C   0  0  0  0  0  0  0  0  0  0  0  0
    6.0976    2.0768   -3.9738 O   0  0  0  0  0  0  0  0  0  0  0  0
    0.3238    0.6703   -2.2739 C   0  0  0  0  0  0  0  0  0  0  0  0
   -1.0046    0.8555   -2.6645 C   0  0  0  0  0  0  0  0  0  0  0  0
   -1.6830    2.0719   -2.3180 C   0  0  0  0  0  0  0  0  0  0  0  0
   -0.9719    3.0020   -1.5635 C   0  0  0  0  0  0  0  0  0  0  0  0
    0.3517    2.7930   -1.1796 C   0  0  0  0  0  0  0  0  0  0  0  0
    1.0195    1.6090   -1.5398 C   0  0  0  0  0  0  0  0  0  0  0  0
   -1.6489   -0.7082    3.7298 F   0  0  0  0  0  0  0  0  0  0  0  0
  1  2  1  0  0  0  0
  2  3  1  0  0  0  0
  2  5  1  0  0  0  0
  3  4  1  0  0  0  0
  5  6  4  0  0  0  0
  5 10  4  0  0  0  0
  6  7  4  0  0  0  0
  7  8  4  0  0  0  0
  8  9  4  0  0  0  0
  9 10  4  0  0  0  0
 10 11  1  0  0  0  0
 11 12  4  0  0  0  0
 11 15  4  0  0  0  0
 12 13  1  0  0  0  0
 12 68  4  0  0  0  0
 13 14  1  0  0  0  0
 15 16  1  0  0  0  0
 15 67  4  0  0  0  0
 16 17  1  0  0  0  0
 17 18  1  0  0  0  0
 17 19  1  0  0  0  0
 17 20  1  0  0  0  0
 20 21  1  0  0  0  0
 21 22  1  0  0  0  0
 22 23  1  0  0  0  0
 22 66  2  0  0  0  0
 23 24  1  0  0  0  0
 23 65  1  0  0  0  0
 24 25  1  0  0  0  0
 25 26  1  0  0  0  0
 25 63  1  0  0  0  0
 26 27  1  0  0  0  0
 26 62  2  0  0  0  0
 27 28  1  0  0  0  0
 27 55  1  0  0  0  0
 28 29  1  0  0  0  0
 29 30  1  0  0  0  0
 29 54  2  0  0  0  0
 30 31  1  0  0  0  0
 30 34  1  0  0  0  0
 31 32  1  0  0  0  0
 31 33  1  0  0  0  0
 34 35  1  0  0  0  0
 34 53  1  0  0  0  0
 35 36  1  0  0  0  0
 35 52  2  0  0  0  0
 36 37  1  0  0  0  0
 36 51  1  0  0  0  0
 36 73  1  0  0  0  0
 37 38  1  0  0  0  0
 38 39  1  0  0  0  0
 39 40  1  0  0  0  0
 39 50  1  0  0  0  0
 40 41  1  0  0  0  0
 40 49  2  0  0  0  0
 41 42  1  0  0  0  0
 42 43  1  0  0  0  0
 43 44  1  0  0  0  0
 43 47  1  0  0  0  0
 43 48  1  0  0  0  0
 44 45  1  0  0  0  0
 44 46  1  0  0  0  0
 50 51  1  0  0  0  0
 55 56  1  0  0  0  0
 56 57  1  0  0  0  0
 56 61  1  0  0  0  0
 57 58  1  0  0  0  0
 58 59  1  0  0  0  0
 58 71  1  0  0  0  0
 59 60  1  0  0  0  0
 60 61  1  0  0  0  0
 63 64  1  0  0  0  0
 64 65  1  0  0  0  0
 67 68  4  0  0  0  0
 67 72  4  0  0  0  0
 68 69  4  0  0  0  0
 69 70  4  0  0  0  0
 70 71  4  0  0  0  0
 71 72  4  0  0  0  0
M  END
$$$$
