mol_bioactive_45
  PyMOL3.1          3D                             0

 73 79  0  0  0  0  0  0  0  0999 V2000
   -2.6302   -1.3889    4.3513 C   0  0  0  0  0  0  0  0  0  0  0  0
   -1.9885   -2.6638    4.6574 C   0  0  0  0  0  0  0  0  0  0  0  0
   -2.9195   -3.7220    4.9310 O   0  0  0  0  0  0  0  0  0  0  0  0
   -3.4409   -4.4108    3.8297 C   0  0  0  0  0  0  0  0  0  0  0  0
   -1.0260   -2.5842    5.7870 C   0  0  0  0  0  0  0  0  0  0  0  0
   -1.4590   -2.8450    7.0029 N   0  0  0  0  0  0  0  0  0  0  0  0
   -0.6289   -2.8379    8.0650 C   0  0  0  0  0  0  0  0  0  0  0  0
    0.7212   -2.5322    7.9327 C   0  0  0  0  0  0  0  0  0  0  0  0
    1.2023   -2.2404    6.6582 C   0  0  0  0  0  0  0  0  0  0  0  0
    0.3047   -2.2295    5.5912 C   0  0  0  0  0  0  0  0  0  0  0  0
    0.8142   -1.8740    4.2958 C   0  0  0  0  0  0  0  0  0  0  0  0
    1.2143   -2.7967    3.3981 N   0  0  0  0  0  0  0  0  0  0  0  0
    1.1916   -4.2942    3.5417 C   0  0  0  0  0  0  0  0  0  0  0  0
    2.5145   -4.8775    3.7775 C   0  0  0  0  0  0  0  0  0  0  0  0
    0.9134   -0.5557    3.7545 C   0  0  0  0  0  0  0  0  0  0  0  0
    0.4880    0.7888    4.2723 C   0  0  0  0  0  0  0  0  0  0  0  0
    1.5272    1.6442    5.1067 C   0  0  0  0  0  0  0  0  0  0  0  0
    1.6258    1.1397    6.5349 C   0  0  0  0  0  0  0  0  0  0  0  0
    0.9693    3.0282    5.2192 C   0  0  0  0  0  0  0  0  0  0  0  0
    2.9319    1.7182    4.4960 C   0  0  0  0  0  0  0  0  0  0  0  0
    3.1885    2.9194    3.6112 O   0  0  0  0  0  0  0  0  0  0  0  0
    4.3688    3.7323    3.6594 C   0  0  0  0  0  0  0  0  0  0  0  0
    4.4800    4.9353    2.7197 C   0  0  0  0  0  0  0  0  0  0  0  0
    3.1839    5.3455    2.2866 N   0  0  0  0  0  0  0  0  0  0  0  0
    3.0883    6.4553    1.4541 N   0  0  0  0  0  0  0  0  0  0  0  0
    2.4403    6.3737    0.2544 C   0  0  0  0  0  0  0  0  0  0  0  0
    1.9040    5.0431   -0.1840 C   0  0  0  0  0  0  0  0  0  0  0  0
    0.6365    5.1828   -0.8972 N   0  0  0  0  0  0  0  0  0  0  0  0
   -0.5792    5.0465   -0.3585 C   0  0  0  0  0  0  0  0  0  0  0  0
   -1.7420    5.1029   -1.2976 C   0  0  0  0  0  0  0  0  0  0  0  0
   -2.6052    6.3958   -1.2426 C   0  0  0  0  0  0  0  0  0  0  0  0
   -3.4798    6.5701   -2.4460 C   0  0  0  0  0  0  0  0  0  0  0  0
   -1.8507    7.6195   -0.8755 C   0  0  0  0  0  0  0  0  0  0  0  0
   -2.5169    3.8898   -1.0517 N   0  0  0  0  0  0  0  0  0  0  0  0
   -2.1081    2.7401   -1.6673 C   0  0  0  0  0  0  0  0  0  0  0  0
   -2.6770    1.3696   -1.3955 C   0  0  0  0  0  0  0  0  0  0  0  0
   -2.0347    0.9039   -0.1096 C   0  0  0  0  0  0  0  0  0  0  0  0
   -2.4727   -0.4702    0.2426 C   0  0  0  0  0  0  0  0  0  0  0  0
   -2.1747   -1.3728   -0.8777 N   0  0  0  0  0  0  0  0  0  0  0  0
   -1.4085   -2.4899   -0.6811 C   0  0  0  0  0  0  0  0  0  0  0  0
   -0.6007   -3.0180   -1.6903 C   0  0  0  0  0  0  0  0  0  0  0  0
    0.1284   -3.5084   -2.4659 C   0  0  0  0  0  0  0  0  0  0  0  0
    0.9700   -3.9388   -3.5150 C   0  0  0  0  0  0  0  0  0  0  0  0
    1.3463   -2.8271   -4.3116 N   0  0  0  0  0  0  0  0  0  0  0  0
    2.6697   -2.4675   -4.4972 C   0  0  0  0  0  0  0  0  0  0  0  0
    0.3618   -2.1092   -5.0085 C   0  0  0  0  0  0  0  0  0  0  0  0
    2.1799   -4.6287   -2.9389 C   0  0  0  0  0  0  0  0  0  0  0  0
    0.2550   -4.9351   -4.4079 C   0  0  0  0  0  0  0  0  0  0  0  0
   -1.3826   -3.0208    0.4242 O   0  0  0  0  0  0  0  0  0  0  0  0
   -2.7028   -0.9986   -2.1556 C   0  0  0  0  0  0  0  0  0  0  0  0
   -2.3344    0.3832   -2.5223 C   0  0  0  0  0  0  0  0  0  0  0  0
   -1.1651    2.8281   -2.4681 O   0  0  0  0  0  0  0  0  0  0  0  0
   -3.6058    3.9229   -0.0606 C   0  0  0  0  0  0  0  0  0  0  0  0
   -0.6929    4.7409    0.8158 O   0  0  0  0  0  0  0  0  0  0  0  0
    2.9939    4.3954   -1.1072 C   0  0  0  0  0  0  0  0  0  0  0  0
    3.2208    2.8893   -1.3178 C   0  0  0  0  0  0  0  0  0  0  0  0
    2.4827    2.0245   -0.4082 C   0  0  0  0  0  0  0  0  0  0  0  0
    2.5791    0.6232   -0.7049 N   0  0  0  0  0  0  0  0  0  0  0  0
    3.1103    0.1916   -1.9568 C   0  0  0  0  0  0  0  0  0  0  0  0
    3.2894    1.2096   -3.0082 C   0  0  0  0  0  0  0  0  0  0  0  0
    2.9641    2.5787   -2.6914 O   0  0  0  0  0  0  0  0  0  0  0  0
    2.3563    7.3422   -0.5138 O   0  0  0  0  0  0  0  0  0  0  0  0
    3.6723    7.6857    1.9685 C   0  0  0  0  0  0  0  0  0  0  0  0
    5.0982    7.4007    2.4854 C   0  0  0  0  0  0  0  0  0  0  0  0
    5.1747    6.1642    3.3782 C   0  0  0  0  0  0  0  0  0  0  0  0
    5.3210    3.5076    4.4165 O   0  0  0  0  0  0  0  0  0  0  0  0
    1.4482   -0.7789    2.4801 C   0  0  0  0  0  0  0  0  0  0  0  0
    1.6133   -2.1507    2.3003 C   0  0  0  0  0  0  0  0  0  0  0  0
    2.1177   -2.6314    1.0531 C   0  0  0  0  0  0  0  0  0  0  0  0
    2.4165   -1.6842    0.0764 C   0  0  0  0  0  0  0  0  0  0  0  0
    2.2431   -0.3080    0.2798 C   0  0  0  0  0  0  0  0  0  0  0  0
    1.7445    0.1545    1.5005 C   0  0  0  0  0  0  0  0  0  0  0  0
   -4.0573    1.3953   -1.3117 F   0  0  0  0  0  0  0  0  0  0  0  0
  1  2  1  0  0  0  0
  2  3  1  0  0  0  0
  2  5  1  0  0  0  0
  3  4  1  0  0  0  0
  5  6  4  0  0  0  0
  5 10  4  0  0  0  0
  6  7  4  0  0  0  0
  7  8  4  0  0  0  0
  8  9  4  0  0  0  0
  9 10  4  0  0  0  0
 10 11  1  0  0  0  0
 11 12  4  0  0  0  0
 11 15  4  0  0  0  0
 12 13  1  0  0  0  0
 12 68  4  0  0  0  0
 13 14  1  0  0  0  0
 15 16  1  0  0  0  0
 15 67  4  0  0  0  0
 16 17  1  0  0  0  0
 17 18  1  0  0  0  0
 17 19  1  0  0  0  0
 17 20  1  0  0  0  0
 20 21  1  0  0  0  0
 21 22  1  0  0  0  0
 22 23  1  0  0  0  0
 22 66  2  0  0  0  0
 23 24  1  0  0  0  0
 23 65  1  0  0  0  0
 24 25  1  0  0  0  0
 25 26  1  0  0  0  0
 25 63  1  0  0  0  0
 26 27  1  0  0  0  0
 26 62  2  0  0  0  0
 27 28  1  0  0  0  0
 27 55  1  0  0  0  0
 28 29  1  0  0  0  0
 29 30  1  0  0  0  0
 29 54  2  0  0  0  0
 30 31  1  0  0  0  0
 30 34  1  0  0  0  0
 31 32  1  0  0  0  0
 31 33  1  0  0  0  0
 34 35  1  0  0  0  0
 34 53  1  0  0  0  0
 35 36  1  0  0  0  0
 35 52  2  0  0  0  0
 36 37  1  0  0  0  0
 36 51  1  0  0  0  0
 36 73  1  0  0  0  0
 37 38  1  0  0  0  0
 38 39  1  0  0  0  0
 39 40  1  0  0  0  0
 39 50  1  0  0  0  0
 40 41  1  0  0  0  0
 40 49  2  0  0  0  0
 41 42  1  0  0  0  0
 42 43  1  0  0  0  0
 43 44  1  0  0  0  0
 43 47  1  0  0  0  0
 43 48  1  0  0  0  0
 44 45  1  0  0  0  0
 44 46  1  0  0  0  0
 50 51  1  0  0  0  0
 55 56  1  0  0  0  0
 56 57  1  0  0  0  0
 56 61  1  0  0  0  0
 57 58  1  0  0  0  0
 58 59  1  0  0  0  0
 58 71  1  0  0  0  0
 59 60  1  0  0  0  0
 60 61  1  0  0  0  0
 63 64  1  0  0  0  0
 64 65  1  0  0  0  0
 67 68  4  0  0  0  0
 67 72  4  0  0  0  0
 68 69  4  0  0  0  0
 69 70  4  0  0  0  0
 70 71  4  0  0  0  0
 71 72  4  0  0  0  0
M  END
$$$$
