mol_bioactive_46
  PyMOL3.1          3D                             0

 73 79  0  0  0  0  0  0  0  0999 V2000
   -1.3811   -5.1568   -0.0584 C   0  0  0  0  0  0  0  0  0  0  0  0
   -2.1881   -5.5027    1.0875 C   0  0  0  0  0  0  0  0  0  0  0  0
   -3.3507   -4.6807    1.2970 O   0  0  0  0  0  0  0  0  0  0  0  0
   -4.1573   -4.2369    0.2642 C   0  0  0  0  0  0  0  0  0  0  0  0
   -1.5482   -5.5573    2.4062 C   0  0  0  0  0  0  0  0  0  0  0  0
   -2.1324   -6.5590    3.0153 N   0  0  0  0  0  0  0  0  0  0  0  0
   -1.6983   -7.0399    4.1642 C   0  0  0  0  0  0  0  0  0  0  0  0
   -0.5762   -6.5266    4.7842 C   0  0  0  0  0  0  0  0  0  0  0  0
    0.0902   -5.4515    4.1848 C   0  0  0  0  0  0  0  0  0  0  0  0
   -0.4039   -4.9468    2.9855 C   0  0  0  0  0  0  0  0  0  0  0  0
    0.2735   -3.7955    2.4182 C   0  0  0  0  0  0  0  0  0  0  0  0
    1.3974   -3.8826    1.6585 N   0  0  0  0  0  0  0  0  0  0  0  0
    2.1014   -5.1278    1.2081 C   0  0  0  0  0  0  0  0  0  0  0  0
    3.3638   -5.3872    1.8811 C   0  0  0  0  0  0  0  0  0  0  0  0
   -0.1313   -2.4348    2.5418 C   0  0  0  0  0  0  0  0  0  0  0  0
   -1.3530   -1.8180    3.1665 C   0  0  0  0  0  0  0  0  0  0  0  0
   -1.2557   -1.4178    4.6968 C   0  0  0  0  0  0  0  0  0  0  0  0
   -2.6078   -0.8484    5.0986 C   0  0  0  0  0  0  0  0  0  0  0  0
   -1.0643   -2.6032    5.5738 C   0  0  0  0  0  0  0  0  0  0  0  0
   -0.1479   -0.3873    4.9725 C   0  0  0  0  0  0  0  0  0  0  0  0
   -0.5217    1.0537    4.7202 O   0  0  0  0  0  0  0  0  0  0  0  0
   -0.3991    2.1135    5.6774 C   0  0  0  0  0  0  0  0  0  0  0  0
   -0.8223    3.5282    5.2654 C   0  0  0  0  0  0  0  0  0  0  0  0
   -1.7442    3.4663    4.1670 N   0  0  0  0  0  0  0  0  0  0  0  0
   -2.2889    4.6599    3.6911 N   0  0  0  0  0  0  0  0  0  0  0  0
   -2.1951    5.0048    2.3637 C   0  0  0  0  0  0  0  0  0  0  0  0
   -1.4640    4.0849    1.4234 C   0  0  0  0  0  0  0  0  0  0  0  0
   -2.2040    3.8984    0.1747 N   0  0  0  0  0  0  0  0  0  0  0  0
   -3.0123    2.8576   -0.0838 C   0  0  0  0  0  0  0  0  0  0  0  0
   -3.5938    2.7812   -1.4611 C   0  0  0  0  0  0  0  0  0  0  0  0
   -5.0917    3.2090   -1.5809 C   0  0  0  0  0  0  0  0  0  0  0  0
   -5.5249    3.3728   -3.0003 C   0  0  0  0  0  0  0  0  0  0  0  0
   -5.4469    4.3812   -0.7297 C   0  0  0  0  0  0  0  0  0  0  0  0
   -3.3771    1.4168   -1.9414 N   0  0  0  0  0  0  0  0  0  0  0  0
   -2.1770    1.1204   -2.5440 C   0  0  0  0  0  0  0  0  0  0  0  0
   -1.7926   -0.2395   -3.0802 C   0  0  0  0  0  0  0  0  0  0  0  0
   -1.0031   -0.9614   -2.0113 C   0  0  0  0  0  0  0  0  0  0  0  0
   -0.6247   -2.3220   -2.4541 C   0  0  0  0  0  0  0  0  0  0  0  0
    0.0725   -2.2503   -3.7396 N   0  0  0  0  0  0  0  0  0  0  0  0
    1.2673   -2.8862   -3.9075 C   0  0  0  0  0  0  0  0  0  0  0  0
    2.0856   -2.6340   -5.0016 C   0  0  0  0  0  0  0  0  0  0  0  0
    2.8735   -2.5573   -5.8705 C   0  0  0  0  0  0  0  0  0  0  0  0
    3.7598   -2.3477   -6.9411 C   0  0  0  0  0  0  0  0  0  0  0  0
    4.8059   -3.3233   -7.0070 N   0  0  0  0  0  0  0  0  0  0  0  0
    5.0678   -4.1706   -5.9372 C   0  0  0  0  0  0  0  0  0  0  0  0
    5.7422   -3.3318   -8.0460 C   0  0  0  0  0  0  0  0  0  0  0  0
    2.9531   -2.3743   -8.2213 C   0  0  0  0  0  0  0  0  0  0  0  0
    4.3839   -0.9727   -6.8042 C   0  0  0  0  0  0  0  0  0  0  0  0
    1.6497   -3.6860   -3.0581 O   0  0  0  0  0  0  0  0  0  0  0  0
   -0.5520   -1.4940   -4.7863 C   0  0  0  0  0  0  0  0  0  0  0  0
   -0.9629   -0.1487   -4.3594 C   0  0  0  0  0  0  0  0  0  0  0  0
   -1.3457    2.0347   -2.6419 O   0  0  0  0  0  0  0  0  0  0  0  0
   -4.3890    0.3994   -1.6494 C   0  0  0  0  0  0  0  0  0  0  0  0
   -3.1453    1.9799    0.7483 O   0  0  0  0  0  0  0  0  0  0  0  0
   -0.0362    4.6707    1.1229 C   0  0  0  0  0  0  0  0  0  0  0  0
    1.2202    3.8002    0.8609 C   0  0  0  0  0  0  0  0  0  0  0  0
    0.9824    2.3553    0.9735 C   0  0  0  0  0  0  0  0  0  0  0  0
    2.0366    1.4967    0.5014 N   0  0  0  0  0  0  0  0  0  0  0  0
    3.0843    2.0405   -0.3006 C   0  0  0  0  0  0  0  0  0  0  0  0
    2.9528    3.4476   -0.7516 C   0  0  0  0  0  0  0  0  0  0  0  0
    1.7377    4.1583   -0.4302 O   0  0  0  0  0  0  0  0  0  0  0  0
   -2.6536    6.0738    1.9345 O   0  0  0  0  0  0  0  0  0  0  0  0
   -2.9917    5.4681    4.6802 C   0  0  0  0  0  0  0  0  0  0  0  0
   -2.1094    5.6342    5.9351 C   0  0  0  0  0  0  0  0  0  0  0  0
   -1.5107    4.3176    6.4200 C   0  0  0  0  0  0  0  0  0  0  0  0
    0.0529    1.9489    6.8222 O   0  0  0  0  0  0  0  0  0  0  0  0
    0.8505   -1.7220    1.8219 C   0  0  0  0  0  0  0  0  0  0  0  0
    1.7606   -2.6388    1.3009 C   0  0  0  0  0  0  0  0  0  0  0  0
    2.8411   -2.1558    0.4922 C   0  0  0  0  0  0  0  0  0  0  0  0
    2.9145   -0.7778    0.2637 C   0  0  0  0  0  0  0  0  0  0  0  0
    1.9722    0.1242    0.7834 C   0  0  0  0  0  0  0  0  0  0  0  0
    0.9344   -0.3542    1.5901 C   0  0  0  0  0  0  0  0  0  0  0  0
   -2.8849   -0.9745   -3.4363 F   0  0  0  0  0  0  0  0  0  0  0  0
  1  2  1  0  0  0  0
  2  3  1  0  0  0  0
  2  5  1  0  0  0  0
  3  4  1  0  0  0  0
  5  6  4  0  0  0  0
  5 10  4  0  0  0  0
  6  7  4  0  0  0  0
  7  8  4  0  0  0  0
  8  9  4  0  0  0  0
  9 10  4  0  0  0  0
 10 11  1  0  0  0  0
 11 12  4  0  0  0  0
 11 15  4  0  0  0  0
 12 13  1  0  0  0  0
 12 68  4  0  0  0  0
 13 14  1  0  0  0  0
 15 16  1  0  0  0  0
 15 67  4  0  0  0  0
 16 17  1  0  0  0  0
 17 18  1  0  0  0  0
 17 19  1  0  0  0  0
 17 20  1  0  0  0  0
 20 21  1  0  0  0  0
 21 22  1  0  0  0  0
 22 23  1  0  0  0  0
 22 66  2  0  0  0  0
 23 24  1  0  0  0  0
 23 65  1  0  0  0  0
 24 25  1  0  0  0  0
 25 26  1  0  0  0  0
 25 63  1  0  0  0  0
 26 27  1  0  0  0  0
 26 62  2  0  0  0  0
 27 28  1  0  0  0  0
 27 55  1  0  0  0  0
 28 29  1  0  0  0  0
 29 30  1  0  0  0  0
 29 54  2  0  0  0  0
 30 31  1  0  0  0  0
 30 34  1  0  0  0  0
 31 32  1  0  0  0  0
 31 33  1  0  0  0  0
 34 35  1  0  0  0  0
 34 53  1  0  0  0  0
 35 36  1  0  0  0  0
 35 52  2  0  0  0  0
 36 37  1  0  0  0  0
 36 51  1  0  0  0  0
 36 73  1  0  0  0  0
 37 38  1  0  0  0  0
 38 39  1  0  0  0  0
 39 40  1  0  0  0  0
 39 50  1  0  0  0  0
 40 41  1  0  0  0  0
 40 49  2  0  0  0  0
 41 42  1  0  0  0  0
 42 43  1  0  0  0  0
 43 44  1  0  0  0  0
 43 47  1  0  0  0  0
 43 48  1  0  0  0  0
 44 45  1  0  0  0  0
 44 46  1  0  0  0  0
 50 51  1  0  0  0  0
 55 56  1  0  0  0  0
 56 57  1  0  0  0  0
 56 61  1  0  0  0  0
 57 58  1  0  0  0  0
 58 59  1  0  0  0  0
 58 71  1  0  0  0  0
 59 60  1  0  0  0  0
 60 61  1  0  0  0  0
 63 64  1  0  0  0  0
 64 65  1  0  0  0  0
 67 68  4  0  0  0  0
 67 72  4  0  0  0  0
 68 69  4  0  0  0  0
 69 70  4  0  0  0  0
 70 71  4  0  0  0  0
 71 72  4  0  0  0  0
M  END
$$$$
