mol_ETKDG5_271
  PyMOL3.1          3D                             0

 73 79  0  0  0  0  0  0  0  0999 V2000
   -3.9984    2.1662   -2.7213 C   0  0  0  0  0  0  0  0  0  0  0  0
   -2.6159    2.1098   -2.2050 C   0  0  0  0  0  0  0  0  0  0  0  0
   -1.5890    2.2648   -3.1646 O   0  0  0  0  0  0  0  0  0  0  0  0
   -1.3483    1.1915   -4.0328 C   0  0  0  0  0  0  0  0  0  0  0  0
   -2.3712    3.1134   -1.1585 C   0  0  0  0  0  0  0  0  0  0  0  0
   -2.2137    4.3724   -1.5310 N   0  0  0  0  0  0  0  0  0  0  0  0
   -2.0375    5.3545   -0.6219 C   0  0  0  0  0  0  0  0  0  0  0  0
   -2.0236    5.0889    0.7512 C   0  0  0  0  0  0  0  0  0  0  0  0
   -2.1991    3.7623    1.1647 C   0  0  0  0  0  0  0  0  0  0  0  0
   -2.3514    2.7683    0.1890 C   0  0  0  0  0  0  0  0  0  0  0  0
   -2.4937    1.4026    0.6214 C   0  0  0  0  0  0  0  0  0  0  0  0
   -3.6466    0.9010    1.1226 N   0  0  0  0  0  0  0  0  0  0  0  0
   -4.9627    1.6078    1.2859 C   0  0  0  0  0  0  0  0  0  0  0  0
   -5.2626    1.9518    2.6795 C   0  0  0  0  0  0  0  0  0  0  0  0
   -1.5057    0.3894    0.5264 C   0  0  0  0  0  0  0  0  0  0  0  0
   -0.1264    0.4100   -0.0774 C   0  0  0  0  0  0  0  0  0  0  0  0
    1.0466    0.8278    0.9056 C   0  0  0  0  0  0  0  0  0  0  0  0
    0.8883    2.2274    1.4554 C   0  0  0  0  0  0  0  0  0  0  0  0
    2.3225    0.8585    0.1043 C   0  0  0  0  0  0  0  0  0  0  0  0
    1.1582   -0.1413    2.0648 C   0  0  0  0  0  0  0  0  0  0  0  0
    1.9267   -1.4071    1.7599 O   0  0  0  0  0  0  0  0  0  0  0  0
    2.9686   -1.9222    2.5971 C   0  0  0  0  0  0  0  0  0  0  0  0
    3.6593   -3.2151    2.1988 C   0  0  0  0  0  0  0  0  0  0  0  0
    3.3744   -3.5324    0.8285 N   0  0  0  0  0  0  0  0  0  0  0  0
    3.9608   -4.6856    0.3126 N   0  0  0  0  0  0  0  0  0  0  0  0
    3.1998   -5.6720   -0.2516 C   0  0  0  0  0  0  0  0  0  0  0  0
    1.7140   -5.4823   -0.2943 C   0  0  0  0  0  0  0  0  0  0  0  0
    1.1171   -5.9611   -1.5189 N   0  0  0  0  0  0  0  0  0  0  0  0
    0.7965   -5.1407   -2.5405 C   0  0  0  0  0  0  0  0  0  0  0  0
    0.0136   -5.7701   -3.6395 C   0  0  0  0  0  0  0  0  0  0  0  0
    0.8356   -6.1231   -4.9137 C   0  0  0  0  0  0  0  0  0  0  0  0
    0.1201   -7.0792   -5.8085 C   0  0  0  0  0  0  0  0  0  0  0  0
    2.2526   -6.5112   -4.6414 C   0  0  0  0  0  0  0  0  0  0  0  0
   -1.1093   -4.8768   -3.9337 N   0  0  0  0  0  0  0  0  0  0  0  0
   -2.2410   -4.9746   -3.1635 C   0  0  0  0  0  0  0  0  0  0  0  0
   -3.4545   -4.0902   -3.3113 C   0  0  0  0  0  0  0  0  0  0  0  0
   -3.1291   -2.7700   -2.6547 C   0  0  0  0  0  0  0  0  0  0  0  0
   -4.2623   -1.8147   -2.7914 C   0  0  0  0  0  0  0  0  0  0  0  0
   -5.4714   -2.4153   -2.2175 N   0  0  0  0  0  0  0  0  0  0  0  0
   -6.1976   -1.7224   -1.2875 C   0  0  0  0  0  0  0  0  0  0  0  0
   -7.1192   -2.3490   -0.4639 C   0  0  0  0  0  0  0  0  0  0  0  0
   -7.9434   -2.7348    0.2567 C   0  0  0  0  0  0  0  0  0  0  0  0
   -8.9226   -3.3486    1.0568 C   0  0  0  0  0  0  0  0  0  0  0  0
  -10.1531   -2.6249    0.9426 N   0  0  0  0  0  0  0  0  0  0  0  0
  -10.4723   -1.5789    1.8281 C   0  0  0  0  0  0  0  0  0  0  0  0
  -10.9036   -2.6986   -0.2636 C   0  0  0  0  0  0  0  0  0  0  0  0
   -8.4372   -3.4030    2.4952 C   0  0  0  0  0  0  0  0  0  0  0  0
   -9.1425   -4.7881    0.6331 C   0  0  0  0  0  0  0  0  0  0  0  0
   -6.0183   -0.5143   -1.1378 O   0  0  0  0  0  0  0  0  0  0  0  0
   -5.8288   -3.7284   -2.6800 C   0  0  0  0  0  0  0  0  0  0  0  0
   -4.7036   -4.6852   -2.6353 C   0  0  0  0  0  0  0  0  0  0  0  0
   -2.2496   -5.8347   -2.2633 O   0  0  0  0  0  0  0  0  0  0  0  0
   -0.9355   -3.8311   -4.9586 C   0  0  0  0  0  0  0  0  0  0  0  0
    1.0319   -3.9479   -2.4874 O   0  0  0  0  0  0  0  0  0  0  0  0
    1.0532   -6.2243    0.9305 C   0  0  0  0  0  0  0  0  0  0  0  0
   -0.4721   -5.9996    1.0798 C   0  0  0  0  0  0  0  0  0  0  0  0
   -0.6702   -4.6014    1.5454 C   0  0  0  0  0  0  0  0  0  0  0  0
   -2.0550   -4.3195    1.8334 N   0  0  0  0  0  0  0  0  0  0  0  0
   -2.7052   -5.2690    2.7429 C   0  0  0  0  0  0  0  0  0  0  0  0
   -2.3879   -6.7130    2.3305 C   0  0  0  0  0  0  0  0  0  0  0  0
   -0.9572   -6.9160    2.0976 O   0  0  0  0  0  0  0  0  0  0  0  0
    3.6974   -6.7344   -0.6730 O   0  0  0  0  0  0  0  0  0  0  0  0
    5.4208   -4.7283    0.3630 C   0  0  0  0  0  0  0  0  0  0  0  0
    5.8819   -4.4009    1.8017 C   0  0  0  0  0  0  0  0  0  0  0  0
    5.2053   -3.1433    2.3574 C   0  0  0  0  0  0  0  0  0  0  0  0
    3.3565   -1.3903    3.6542 O   0  0  0  0  0  0  0  0  0  0  0  0
   -2.1447   -0.7412    1.0542 C   0  0  0  0  0  0  0  0  0  0  0  0
   -3.4444   -0.3901    1.4023 C   0  0  0  0  0  0  0  0  0  0  0  0
   -4.3258   -1.3884    1.9285 C   0  0  0  0  0  0  0  0  0  0  0  0
   -3.8281   -2.6841    2.0446 C   0  0  0  0  0  0  0  0  0  0  0  0
   -2.5177   -3.0103    1.6986 C   0  0  0  0  0  0  0  0  0  0  0  0
   -1.6603   -2.0310    1.1795 C   0  0  0  0  0  0  0  0  0  0  0  0
   -3.7987   -3.9374   -4.6451 F   0  0  0  0  0  0  0  0  0  0  0  0
  1  2  1  0  0  0  0
  2  3  1  0  0  0  0
  2  5  1  0  0  0  0
  3  4  1  0  0  0  0
  5  6  4  0  0  0  0
  5 10  4  0  0  0  0
  6  7  4  0  0  0  0
  7  8  4  0  0  0  0
  8  9  4  0  0  0  0
  9 10  4  0  0  0  0
 10 11  1  0  0  0  0
 11 12  4  0  0  0  0
 11 15  4  0  0  0  0
 12 13  1  0  0  0  0
 12 68  4  0  0  0  0
 13 14  1  0  0  0  0
 15 16  1  0  0  0  0
 15 67  4  0  0  0  0
 16 17  1  0  0  0  0
 17 18  1  0  0  0  0
 17 19  1  0  0  0  0
 17 20  1  0  0  0  0
 20 21  1  0  0  0  0
 21 22  1  0  0  0  0
 22 23  1  0  0  0  0
 22 66  2  0  0  0  0
 23 24  1  0  0  0  0
 23 65  1  0  0  0  0
 24 25  1  0  0  0  0
 25 26  1  0  0  0  0
 25 63  1  0  0  0  0
 26 27  1  0  0  0  0
 26 62  2  0  0  0  0
 27 28  1  0  0  0  0
 27 55  1  0  0  0  0
 28 29  1  0  0  0  0
 29 30  1  0  0  0  0
 29 54  2  0  0  0  0
 30 31  1  0  0  0  0
 30 34  1  0  0  0  0
 31 32  1  0  0  0  0
 31 33  1  0  0  0  0
 34 35  1  0  0  0  0
 34 53  1  0  0  0  0
 35 36  1  0  0  0  0
 35 52  2  0  0  0  0
 36 37  1  0  0  0  0
 36 51  1  0  0  0  0
 36 73  1  0  0  0  0
 37 38  1  0  0  0  0
 38 39  1  0  0  0  0
 39 40  1  0  0  0  0
 39 50  1  0  0  0  0
 40 41  1  0  0  0  0
 40 49  2  0  0  0  0
 41 42  1  0  0  0  0
 42 43  1  0  0  0  0
 43 44  1  0  0  0  0
 43 47  1  0  0  0  0
 43 48  1  0  0  0  0
 44 45  1  0  0  0  0
 44 46  1  0  0  0  0
 50 51  1  0  0  0  0
 55 56  1  0  0  0  0
 56 57  1  0  0  0  0
 56 61  1  0  0  0  0
 57 58  1  0  0  0  0
 58 59  1  0  0  0  0
 58 71  1  0  0  0  0
 59 60  1  0  0  0  0
 60 61  1  0  0  0  0
 63 64  1  0  0  0  0
 64 65  1  0  0  0  0
 67 68  4  0  0  0  0
 67 72  4  0  0  0  0
 68 69  4  0  0  0  0
 69 70  4  0  0  0  0
 70 71  4  0  0  0  0
 71 72  4  0  0  0  0
M  END
$$$$
