mol_bioactive_31
  PyMOL3.1          3D                             0

 73 79  0  0  0  0  0  0  0  0999 V2000
   -2.1777    3.7804    5.2409 C   0  0  0  0  0  0  0  0  0  0  0  0
   -3.4080    3.0388    5.4605 C   0  0  0  0  0  0  0  0  0  0  0  0
   -3.2570    1.6256    5.6065 O   0  0  0  0  0  0  0  0  0  0  0  0
   -2.3867    1.1203    6.5978 C   0  0  0  0  0  0  0  0  0  0  0  0
   -4.4798    3.2000    4.4819 C   0  0  0  0  0  0  0  0  0  0  0  0
   -5.5545    3.4609    5.1884 N   0  0  0  0  0  0  0  0  0  0  0  0
   -6.7099    3.7697    4.6315 C   0  0  0  0  0  0  0  0  0  0  0  0
   -6.8436    3.8618    3.2633 C   0  0  0  0  0  0  0  0  0  0  0  0
   -5.7348    3.5931    2.4614 C   0  0  0  0  0  0  0  0  0  0  0  0
   -4.5325    3.2475    3.0691 C   0  0  0  0  0  0  0  0  0  0  0  0
   -3.4198    2.9503    2.1925 C   0  0  0  0  0  0  0  0  0  0  0  0
   -2.6559    3.9142    1.6137 N   0  0  0  0  0  0  0  0  0  0  0  0
   -2.7340    5.4003    1.8163 C   0  0  0  0  0  0  0  0  0  0  0  0
   -3.2733    6.1428    0.6854 C   0  0  0  0  0  0  0  0  0  0  0  0
   -2.9608    1.6537    1.8084 C   0  0  0  0  0  0  0  0  0  0  0  0
   -3.3633    0.2722    2.2610 C   0  0  0  0  0  0  0  0  0  0  0  0
   -4.5761   -0.4228    1.5057 C   0  0  0  0  0  0  0  0  0  0  0  0
   -4.6523   -1.8565    1.9864 C   0  0  0  0  0  0  0  0  0  0  0  0
   -5.8842    0.1778    1.9040 C   0  0  0  0  0  0  0  0  0  0  0  0
   -4.4383   -0.4144   -0.0084 C   0  0  0  0  0  0  0  0  0  0  0  0
   -3.7456   -1.5875   -0.6602 O   0  0  0  0  0  0  0  0  0  0  0  0
   -4.0631   -2.1011   -1.9576 C   0  0  0  0  0  0  0  0  0  0  0  0
   -3.2547   -3.2802   -2.5008 C   0  0  0  0  0  0  0  0  0  0  0  0
   -2.4492   -3.8616   -1.4670 N   0  0  0  0  0  0  0  0  0  0  0  0
   -1.6629   -4.9769   -1.7650 N   0  0  0  0  0  0  0  0  0  0  0  0
   -0.3124   -4.9871   -1.4981 C   0  0  0  0  0  0  0  0  0  0  0  0
    0.3265   -3.7181   -0.9955 C   0  0  0  0  0  0  0  0  0  0  0  0
    1.3360   -3.9486    0.0362 N   0  0  0  0  0  0  0  0  0  0  0  0
    1.1738   -3.7401    1.3588 C   0  0  0  0  0  0  0  0  0  0  0  0
    2.4096   -3.8643    2.1913 C   0  0  0  0  0  0  0  0  0  0  0  0
    2.5561   -5.1850    2.9778 C   0  0  0  0  0  0  0  0  0  0  0  0
    3.9637   -5.5269    3.3179 C   0  0  0  0  0  0  0  0  0  0  0  0
    1.7404   -6.3200    2.5060 C   0  0  0  0  0  0  0  0  0  0  0  0
    2.4869   -2.6853    3.0612 N   0  0  0  0  0  0  0  0  0  0  0  0
    2.9494   -1.4962    2.5232 C   0  0  0  0  0  0  0  0  0  0  0  0
    3.0450   -0.1716    3.2581 C   0  0  0  0  0  0  0  0  0  0  0  0
    3.6918    0.9245    2.3917 C   0  0  0  0  0  0  0  0  0  0  0  0
    3.6694    2.2646    3.0392 C   0  0  0  0  0  0  0  0  0  0  0  0
    2.3303    2.5941    3.5496 N   0  0  0  0  0  0  0  0  0  0  0  0
    1.6896    3.7864    3.3056 C   0  0  0  0  0  0  0  0  0  0  0  0
    2.1007    4.6755    2.3241 C   0  0  0  0  0  0  0  0  0  0  0  0
    2.3838    5.5161    1.5582 C   0  0  0  0  0  0  0  0  0  0  0  0
    2.8831    6.3945    0.5606 C   0  0  0  0  0  0  0  0  0  0  0  0
    3.9315    7.1816    1.1204 N   0  0  0  0  0  0  0  0  0  0  0  0
    3.7065    8.5035    1.5309 C   0  0  0  0  0  0  0  0  0  0  0  0
    5.1370    6.5782    1.5146 C   0  0  0  0  0  0  0  0  0  0  0  0
    3.4118    5.5929   -0.6151 C   0  0  0  0  0  0  0  0  0  0  0  0
    1.7835    7.2709    0.0242 C   0  0  0  0  0  0  0  0  0  0  0  0
    0.6648    4.0628    3.9406 O   0  0  0  0  0  0  0  0  0  0  0  0
    1.6708    1.5909    4.3245 C   0  0  0  0  0  0  0  0  0  0  0  0
    1.6409    0.2914    3.5968 C   0  0  0  0  0  0  0  0  0  0  0  0
    3.3098   -1.5255    1.3346 O   0  0  0  0  0  0  0  0  0  0  0  0
    1.9752   -2.7746    4.4386 C   0  0  0  0  0  0  0  0  0  0  0  0
    0.1079   -3.3512    1.8053 O   0  0  0  0  0  0  0  0  0  0  0  0
    0.9892   -2.9987   -2.2249 C   0  0  0  0  0  0  0  0  0  0  0  0
    1.1590   -1.4696   -2.3708 C   0  0  0  0  0  0  0  0  0  0  0  0
    0.5040   -0.7106   -1.3030 C   0  0  0  0  0  0  0  0  0  0  0  0
    0.7780    0.6980   -1.3047 N   0  0  0  0  0  0  0  0  0  0  0  0
    1.8512    1.2155   -2.1128 C   0  0  0  0  0  0  0  0  0  0  0  0
    2.7977    0.2383   -2.7009 C   0  0  0  0  0  0  0  0  0  0  0  0
    2.5691   -1.1668   -2.4641 O   0  0  0  0  0  0  0  0  0  0  0  0
    0.3959   -5.9728   -1.7374 O   0  0  0  0  0  0  0  0  0  0  0  0
   -2.3831   -6.1205   -2.3211 C   0  0  0  0  0  0  0  0  0  0  0  0
   -3.3015   -5.6480   -3.4699 C   0  0  0  0  0  0  0  0  0  0  0  0
   -4.1280   -4.4068   -3.1232 C   0  0  0  0  0  0  0  0  0  0  0  0
   -4.9633   -1.6438   -2.6816 O   0  0  0  0  0  0  0  0  0  0  0  0
   -1.9017    1.9245    0.9235 C   0  0  0  0  0  0  0  0  0  0  0  0
   -1.7459    3.3094    0.8378 C   0  0  0  0  0  0  0  0  0  0  0  0
   -0.7096    3.8374    0.0106 C   0  0  0  0  0  0  0  0  0  0  0  0
    0.1045    2.9323   -0.6692 C   0  0  0  0  0  0  0  0  0  0  0  0
   -0.0568    1.5536   -0.5823 C   0  0  0  0  0  0  0  0  0  0  0  0
   -1.0776    1.0272    0.2435 C   0  0  0  0  0  0  0  0  0  0  0  0
    3.7994   -0.3212    4.4095 F   0  0  0  0  0  0  0  0  0  0  0  0
  1  2  1  0  0  0  0
  2  3  1  0  0  0  0
  2  5  1  0  0  0  0
  3  4  1  0  0  0  0
  5  6  4  0  0  0  0
  5 10  4  0  0  0  0
  6  7  4  0  0  0  0
  7  8  4  0  0  0  0
  8  9  4  0  0  0  0
  9 10  4  0  0  0  0
 10 11  1  0  0  0  0
 11 12  4  0  0  0  0
 11 15  4  0  0  0  0
 12 13  1  0  0  0  0
 12 68  4  0  0  0  0
 13 14  1  0  0  0  0
 15 16  1  0  0  0  0
 15 67  4  0  0  0  0
 16 17  1  0  0  0  0
 17 18  1  0  0  0  0
 17 19  1  0  0  0  0
 17 20  1  0  0  0  0
 20 21  1  0  0  0  0
 21 22  1  0  0  0  0
 22 23  1  0  0  0  0
 22 66  2  0  0  0  0
 23 24  1  0  0  0  0
 23 65  1  0  0  0  0
 24 25  1  0  0  0  0
 25 26  1  0  0  0  0
 25 63  1  0  0  0  0
 26 27  1  0  0  0  0
 26 62  2  0  0  0  0
 27 28  1  0  0  0  0
 27 55  1  0  0  0  0
 28 29  1  0  0  0  0
 29 30  1  0  0  0  0
 29 54  2  0  0  0  0
 30 31  1  0  0  0  0
 30 34  1  0  0  0  0
 31 32  1  0  0  0  0
 31 33  1  0  0  0  0
 34 35  1  0  0  0  0
 34 53  1  0  0  0  0
 35 36  1  0  0  0  0
 35 52  2  0  0  0  0
 36 37  1  0  0  0  0
 36 51  1  0  0  0  0
 36 73  1  0  0  0  0
 37 38  1  0  0  0  0
 38 39  1  0  0  0  0
 39 40  1  0  0  0  0
 39 50  1  0  0  0  0
 40 41  1  0  0  0  0
 40 49  2  0  0  0  0
 41 42  1  0  0  0  0
 42 43  1  0  0  0  0
 43 44  1  0  0  0  0
 43 47  1  0  0  0  0
 43 48  1  0  0  0  0
 44 45  1  0  0  0  0
 44 46  1  0  0  0  0
 50 51  1  0  0  0  0
 55 56  1  0  0  0  0
 56 57  1  0  0  0  0
 56 61  1  0  0  0  0
 57 58  1  0  0  0  0
 58 59  1  0  0  0  0
 58 71  1  0  0  0  0
 59 60  1  0  0  0  0
 60 61  1  0  0  0  0
 63 64  1  0  0  0  0
 64 65  1  0  0  0  0
 67 68  4  0  0  0  0
 67 72  4  0  0  0  0
 68 69  4  0  0  0  0
 69 70  4  0  0  0  0
 70 71  4  0  0  0  0
 71 72  4  0  0  0  0
M  END
$$$$
