mol_ETKDG3_196
  PyMOL3.1          3D                             0

 73 79  0  0  0  0  0  0  0  0999 V2000
   -2.0663   -4.7766    1.2302 C   0  0  0  0  0  0  0  0  0  0  0  0
   -1.6813   -3.5908    2.0303 C   0  0  0  0  0  0  0  0  0  0  0  0
   -2.7682   -2.7699    2.4432 O   0  0  0  0  0  0  0  0  0  0  0  0
   -3.3046   -1.9056    1.4587 C   0  0  0  0  0  0  0  0  0  0  0  0
   -0.9292   -3.9591    3.2515 C   0  0  0  0  0  0  0  0  0  0  0  0
   -1.6077   -4.4707    4.2654 N   0  0  0  0  0  0  0  0  0  0  0  0
   -0.9817   -4.8841    5.3869 C   0  0  0  0  0  0  0  0  0  0  0  0
    0.4092   -4.8022    5.5256 C   0  0  0  0  0  0  0  0  0  0  0  0
    1.1509   -4.2729    4.4573 C   0  0  0  0  0  0  0  0  0  0  0  0
    0.4604   -3.8236    3.3264 C   0  0  0  0  0  0  0  0  0  0  0  0
    1.2238   -3.2272    2.2492 C   0  0  0  0  0  0  0  0  0  0  0  0
    1.8690   -3.9453    1.2941 N   0  0  0  0  0  0  0  0  0  0  0  0
    1.9052   -5.4376    1.1447 C   0  0  0  0  0  0  0  0  0  0  0  0
    3.1998   -6.0241    1.4835 C   0  0  0  0  0  0  0  0  0  0  0  0
    1.3312   -1.8378    1.9842 C   0  0  0  0  0  0  0  0  0  0  0  0
    0.7108   -0.6446    2.6773 C   0  0  0  0  0  0  0  0  0  0  0  0
    1.5533   -0.0091    3.8704 C   0  0  0  0  0  0  0  0  0  0  0  0
    1.6635   -0.9318    5.0671 C   0  0  0  0  0  0  0  0  0  0  0  0
    0.7931    1.1853    4.3879 C   0  0  0  0  0  0  0  0  0  0  0  0
    2.9436    0.4104    3.4229 C   0  0  0  0  0  0  0  0  0  0  0  0
    2.9927    1.7819    2.7624 O   0  0  0  0  0  0  0  0  0  0  0  0
    3.9435    2.7992    3.0777 C   0  0  0  0  0  0  0  0  0  0  0  0
    3.8654    4.1433    2.3501 C   0  0  0  0  0  0  0  0  0  0  0  0
    2.5857    4.2820    1.7253 N   0  0  0  0  0  0  0  0  0  0  0  0
    2.3021    5.4766    1.0702 N   0  0  0  0  0  0  0  0  0  0  0  0
    1.8985    5.4804   -0.2411 C   0  0  0  0  0  0  0  0  0  0  0  0
    1.8079    4.1670   -0.9584 C   0  0  0  0  0  0  0  0  0  0  0  0
    0.6338    4.0676   -1.8069 N   0  0  0  0  0  0  0  0  0  0  0  0
   -0.4296    3.2983   -1.4857 C   0  0  0  0  0  0  0  0  0  0  0  0
   -1.4941    3.1609   -2.5223 C   0  0  0  0  0  0  0  0  0  0  0  0
   -2.7048    4.1079   -2.3614 C   0  0  0  0  0  0  0  0  0  0  0  0
   -2.7126    5.0192   -1.2205 C   0  0  0  0  0  0  0  0  0  0  0  0
   -3.1670    4.6958   -3.6652 C   0  0  0  0  0  0  0  0  0  0  0  0
   -1.9164    1.7571   -2.5182 N   0  0  0  0  0  0  0  0  0  0  0  0
   -1.1450    0.8365   -3.1896 C   0  0  0  0  0  0  0  0  0  0  0  0
   -1.4183   -0.6435   -3.2222 C   0  0  0  0  0  0  0  0  0  0  0  0
   -0.8146   -1.3314   -4.4459 C   0  0  0  0  0  0  0  0  0  0  0  0
   -1.0291   -2.8034   -4.3688 C   0  0  0  0  0  0  0  0  0  0  0  0
   -0.6040   -3.3340   -3.0571 N   0  0  0  0  0  0  0  0  0  0  0  0
    0.2001   -4.4159   -2.9016 C   0  0  0  0  0  0  0  0  0  0  0  0
    0.9254   -4.9455   -3.9419 C   0  0  0  0  0  0  0  0  0  0  0  0
    1.5660   -5.5139   -4.7096 C   0  0  0  0  0  0  0  0  0  0  0  0
    2.3578   -6.1158   -5.6997 C   0  0  0  0  0  0  0  0  0  0  0  0
    3.1988   -7.1069   -5.0991 N   0  0  0  0  0  0  0  0  0  0  0  0
    4.3082   -6.6769   -4.3393 C   0  0  0  0  0  0  0  0  0  0  0  0
    2.6343   -8.3662   -4.7455 C   0  0  0  0  0  0  0  0  0  0  0  0
    3.1852   -5.0579   -6.4069 C   0  0  0  0  0  0  0  0  0  0  0  0
    1.4728   -6.7467   -6.7540 C   0  0  0  0  0  0  0  0  0  0  0  0
    0.3117   -4.9330   -1.7798 O   0  0  0  0  0  0  0  0  0  0  0  0
   -1.0726   -2.6629   -1.8880 C   0  0  0  0  0  0  0  0  0  0  0  0
   -0.8050   -1.2185   -1.9599 C   0  0  0  0  0  0  0  0  0  0  0  0
   -0.1295    1.2529   -3.7751 O   0  0  0  0  0  0  0  0  0  0  0  0
   -3.0894    1.3725   -1.7207 C   0  0  0  0  0  0  0  0  0  0  0  0
   -0.4369    2.6563   -0.4442 O   0  0  0  0  0  0  0  0  0  0  0  0
    3.1145    3.9350   -1.8045 C   0  0  0  0  0  0  0  0  0  0  0  0
    3.2307    2.5276   -2.4525 C   0  0  0  0  0  0  0  0  0  0  0  0
    3.4355    1.5400   -1.3502 C   0  0  0  0  0  0  0  0  0  0  0  0
    3.6849    0.2131   -1.8526 N   0  0  0  0  0  0  0  0  0  0  0  0
    4.7679    0.1225   -2.8406 C   0  0  0  0  0  0  0  0  0  0  0  0
    4.6214    1.2214   -3.9034 C   0  0  0  0  0  0  0  0  0  0  0  0
    4.4103    2.5448   -3.3016 O   0  0  0  0  0  0  0  0  0  0  0  0
    1.6571    6.5303   -0.8534 O   0  0  0  0  0  0  0  0  0  0  0  0
    2.4002    6.6888    1.8808 C   0  0  0  0  0  0  0  0  0  0  0  0
    3.7622    6.6905    2.6133 C   0  0  0  0  0  0  0  0  0  0  0  0
    4.0511    5.3580    3.3229 C   0  0  0  0  0  0  0  0  0  0  0  0
    4.8543    2.6545    3.9059 O   0  0  0  0  0  0  0  0  0  0  0  0
    2.1256   -1.7850    0.8187 C   0  0  0  0  0  0  0  0  0  0  0  0
    2.4333   -3.0855    0.4356 C   0  0  0  0  0  0  0  0  0  0  0  0
    3.2093   -3.3064   -0.7530 C   0  0  0  0  0  0  0  0  0  0  0  0
    3.5979   -2.1848   -1.4829 C   0  0  0  0  0  0  0  0  0  0  0  0
    3.2817   -0.8901   -1.0869 C   0  0  0  0  0  0  0  0  0  0  0  0
    2.5271   -0.6741    0.0890 C   0  0  0  0  0  0  0  0  0  0  0  0
   -2.7655   -0.9163   -3.2614 F   0  0  0  0  0  0  0  0  0  0  0  0
  1  2  1  0  0  0  0
  2  3  1  0  0  0  0
  2  5  1  0  0  0  0
  3  4  1  0  0  0  0
  5  6  4  0  0  0  0
  5 10  4  0  0  0  0
  6  7  4  0  0  0  0
  7  8  4  0  0  0  0
  8  9  4  0  0  0  0
  9 10  4  0  0  0  0
 10 11  1  0  0  0  0
 11 12  4  0  0  0  0
 11 15  4  0  0  0  0
 12 13  1  0  0  0  0
 12 68  4  0  0  0  0
 13 14  1  0  0  0  0
 15 16  1  0  0  0  0
 15 67  4  0  0  0  0
 16 17  1  0  0  0  0
 17 18  1  0  0  0  0
 17 19  1  0  0  0  0
 17 20  1  0  0  0  0
 20 21  1  0  0  0  0
 21 22  1  0  0  0  0
 22 23  1  0  0  0  0
 22 66  2  0  0  0  0
 23 24  1  0  0  0  0
 23 65  1  0  0  0  0
 24 25  1  0  0  0  0
 25 26  1  0  0  0  0
 25 63  1  0  0  0  0
 26 27  1  0  0  0  0
 26 62  2  0  0  0  0
 27 28  1  0  0  0  0
 27 55  1  0  0  0  0
 28 29  1  0  0  0  0
 29 30  1  0  0  0  0
 29 54  2  0  0  0  0
 30 31  1  0  0  0  0
 30 34  1  0  0  0  0
 31 32  1  0  0  0  0
 31 33  1  0  0  0  0
 34 35  1  0  0  0  0
 34 53  1  0  0  0  0
 35 36  1  0  0  0  0
 35 52  2  0  0  0  0
 36 37  1  0  0  0  0
 36 51  1  0  0  0  0
 36 73  1  0  0  0  0
 37 38  1  0  0  0  0
 38 39  1  0  0  0  0
 39 40  1  0  0  0  0
 39 50  1  0  0  0  0
 40 41  1  0  0  0  0
 40 49  2  0  0  0  0
 41 42  1  0  0  0  0
 42 43  1  0  0  0  0
 43 44  1  0  0  0  0
 43 47  1  0  0  0  0
 43 48  1  0  0  0  0
 44 45  1  0  0  0  0
 44 46  1  0  0  0  0
 50 51  1  0  0  0  0
 55 56  1  0  0  0  0
 56 57  1  0  0  0  0
 56 61  1  0  0  0  0
 57 58  1  0  0  0  0
 58 59  1  0  0  0  0
 58 71  1  0  0  0  0
 59 60  1  0  0  0  0
 60 61  1  0  0  0  0
 63 64  1  0  0  0  0
 64 65  1  0  0  0  0
 67 68  4  0  0  0  0
 67 72  4  0  0  0  0
 68 69  4  0  0  0  0
 69 70  4  0  0  0  0
 70 71  4  0  0  0  0
 71 72  4  0  0  0  0
M  END
$$$$
