mol_bioactive_47
  PyMOL3.1          3D                             0

 73 79  0  0  0  0  0  0  0  0999 V2000
    3.4843   -0.2849    5.5835 C   0  0  0  0  0  0  0  0  0  0  0  0
    4.0617   -1.5853    5.2911 C   0  0  0  0  0  0  0  0  0  0  0  0
    4.3277   -1.8870    3.9366 O   0  0  0  0  0  0  0  0  0  0  0  0
    5.0125   -1.0376    3.0848 C   0  0  0  0  0  0  0  0  0  0  0  0
    3.3857   -2.7758    5.7867 C   0  0  0  0  0  0  0  0  0  0  0  0
    4.3313   -3.5378    6.2750 N   0  0  0  0  0  0  0  0  0  0  0  0
    4.0729   -4.6577    6.9215 C   0  0  0  0  0  0  0  0  0  0  0  0
    2.7826   -5.0812    7.1405 C   0  0  0  0  0  0  0  0  0  0  0  0
    1.7347   -4.3180    6.6262 C   0  0  0  0  0  0  0  0  0  0  0  0
    2.0356   -3.1459    5.9294 C   0  0  0  0  0  0  0  0  0  0  0  0
    0.9211   -2.4014    5.3796 C   0  0  0  0  0  0  0  0  0  0  0  0
    0.1215   -1.5986    6.1270 N   0  0  0  0  0  0  0  0  0  0  0  0
    0.2542   -1.2740    7.5831 C   0  0  0  0  0  0  0  0  0  0  0  0
   -0.6898   -1.9993    8.4342 C   0  0  0  0  0  0  0  0  0  0  0  0
    0.5112   -2.3696    4.0215 C   0  0  0  0  0  0  0  0  0  0  0  0
    1.1536   -2.9443    2.7938 C   0  0  0  0  0  0  0  0  0  0  0  0
    0.7652   -4.4118    2.3856 C   0  0  0  0  0  0  0  0  0  0  0  0
    1.6037   -4.8024    1.1765 C   0  0  0  0  0  0  0  0  0  0  0  0
    1.1141   -5.4078    3.4321 C   0  0  0  0  0  0  0  0  0  0  0  0
   -0.7145   -4.5046    2.0523 C   0  0  0  0  0  0  0  0  0  0  0  0
   -1.0895   -4.0469    0.6686 O   0  0  0  0  0  0  0  0  0  0  0  0
   -1.8614   -4.8243   -0.2513 C   0  0  0  0  0  0  0  0  0  0  0  0
   -2.1540   -4.2400   -1.6246 C   0  0  0  0  0  0  0  0  0  0  0  0
   -1.3045   -3.1240   -1.8845 N   0  0  0  0  0  0  0  0  0  0  0  0
   -1.4073   -2.5032   -3.1245 N   0  0  0  0  0  0  0  0  0  0  0  0
   -1.6558   -1.1630   -3.2245 C   0  0  0  0  0  0  0  0  0  0  0  0
   -1.8050   -0.3621   -1.9615 C   0  0  0  0  0  0  0  0  0  0  0  0
   -1.2304    0.9718   -2.0936 N   0  0  0  0  0  0  0  0  0  0  0  0
   -0.0090    1.3382   -1.6868 C   0  0  0  0  0  0  0  0  0  0  0  0
    0.3322    2.7860   -1.8178 C   0  0  0  0  0  0  0  0  0  0  0  0
    1.2069    3.1675   -3.0415 C   0  0  0  0  0  0  0  0  0  0  0  0
    1.2177    4.6369   -3.3133 C   0  0  0  0  0  0  0  0  0  0  0  0
    0.9493    2.3436   -4.2538 C   0  0  0  0  0  0  0  0  0  0  0  0
    0.9145    3.2224   -0.5586 N   0  0  0  0  0  0  0  0  0  0  0  0
    0.0670    3.6375    0.4380 C   0  0  0  0  0  0  0  0  0  0  0  0
    0.5213    4.0242    1.8231 C   0  0  0  0  0  0  0  0  0  0  0  0
   -0.5722    4.7005    2.6588 C   0  0  0  0  0  0  0  0  0  0  0  0
   -0.1162    4.9278    4.0549 C   0  0  0  0  0  0  0  0  0  0  0  0
    0.4610    3.7089    4.6466 N   0  0  0  0  0  0  0  0  0  0  0  0
    0.1309    3.2336    5.8811 C   0  0  0  0  0  0  0  0  0  0  0  0
   -0.8345    3.8491    6.6314 C   0  0  0  0  0  0  0  0  0  0  0  0
   -1.6090    4.2943    7.3507 C   0  0  0  0  0  0  0  0  0  0  0  0
   -2.6323    4.8937    8.1044 C   0  0  0  0  0  0  0  0  0  0  0  0
   -3.2991    3.9359    8.9287 N   0  0  0  0  0  0  0  0  0  0  0  0
   -2.5465    2.9197    9.5409 C   0  0  0  0  0  0  0  0  0  0  0  0
   -4.5732    4.1710    9.4508 C   0  0  0  0  0  0  0  0  0  0  0  0
   -3.6052    5.5366    7.1398 C   0  0  0  0  0  0  0  0  0  0  0  0
   -2.0518    5.9954    8.9790 C   0  0  0  0  0  0  0  0  0  0  0  0
    0.6912    2.2202    6.3341 O   0  0  0  0  0  0  0  0  0  0  0  0
    1.4115    2.9965    3.8694 C   0  0  0  0  0  0  0  0  0  0  0  0
    0.9253    2.7343    2.5104 C   0  0  0  0  0  0  0  0  0  0  0  0
   -1.1507    3.6593    0.1863 O   0  0  0  0  0  0  0  0  0  0  0  0
    2.3724    3.0899   -0.3765 C   0  0  0  0  0  0  0  0  0  0  0  0
    0.7137    0.5339   -1.1286 O   0  0  0  0  0  0  0  0  0  0  0  0
   -3.3445   -0.2542   -1.6354 C   0  0  0  0  0  0  0  0  0  0  0  0
   -3.9185   -0.0144   -0.2139 C   0  0  0  0  0  0  0  0  0  0  0  0
   -2.9388   -0.2573    0.8312 C   0  0  0  0  0  0  0  0  0  0  0  0
   -3.2747    0.1791    2.1493 N   0  0  0  0  0  0  0  0  0  0  0  0
   -4.4273    1.0017    2.3550 C   0  0  0  0  0  0  0  0  0  0  0  0
   -5.0503    1.6087    1.1481 C   0  0  0  0  0  0  0  0  0  0  0  0
   -4.4825    1.3102   -0.1451 O   0  0  0  0  0  0  0  0  0  0  0  0
   -1.8172   -0.6107   -4.3216 O   0  0  0  0  0  0  0  0  0  0  0  0
   -1.2025   -3.3691   -4.2803 C   0  0  0  0  0  0  0  0  0  0  0  0
   -2.0794   -4.6243   -4.1445 C   0  0  0  0  0  0  0  0  0  0  0  0
   -1.9816   -5.2747   -2.7700 C   0  0  0  0  0  0  0  0  0  0  0  0
   -2.3383   -5.9476   -0.0015 O   0  0  0  0  0  0  0  0  0  0  0  0
   -0.6197   -1.5340    4.0300 C   0  0  0  0  0  0  0  0  0  0  0  0
   -0.8184   -1.0786    5.3283 C   0  0  0  0  0  0  0  0  0  0  0  0
   -1.8911   -0.1673    5.5928 C   0  0  0  0  0  0  0  0  0  0  0  0
   -2.6866    0.2234    4.5135 C   0  0  0  0  0  0  0  0  0  0  0  0
   -2.4696   -0.2424    3.2141 C   0  0  0  0  0  0  0  0  0  0  0  0
   -1.4233   -1.1436    2.9671 C   0  0  0  0  0  0  0  0  0  0  0  0
    1.5825    4.9144    1.7638 F   0  0  0  0  0  0  0  0  0  0  0  0
  1  2  1  0  0  0  0
  2  3  1  0  0  0  0
  2  5  1  0  0  0  0
  3  4  1  0  0  0  0
  5  6  4  0  0  0  0
  5 10  4  0  0  0  0
  6  7  4  0  0  0  0
  7  8  4  0  0  0  0
  8  9  4  0  0  0  0
  9 10  4  0  0  0  0
 10 11  1  0  0  0  0
 11 12  4  0  0  0  0
 11 15  4  0  0  0  0
 12 13  1  0  0  0  0
 12 68  4  0  0  0  0
 13 14  1  0  0  0  0
 15 16  1  0  0  0  0
 15 67  4  0  0  0  0
 16 17  1  0  0  0  0
 17 18  1  0  0  0  0
 17 19  1  0  0  0  0
 17 20  1  0  0  0  0
 20 21  1  0  0  0  0
 21 22  1  0  0  0  0
 22 23  1  0  0  0  0
 22 66  2  0  0  0  0
 23 24  1  0  0  0  0
 23 65  1  0  0  0  0
 24 25  1  0  0  0  0
 25 26  1  0  0  0  0
 25 63  1  0  0  0  0
 26 27  1  0  0  0  0
 26 62  2  0  0  0  0
 27 28  1  0  0  0  0
 27 55  1  0  0  0  0
 28 29  1  0  0  0  0
 29 30  1  0  0  0  0
 29 54  2  0  0  0  0
 30 31  1  0  0  0  0
 30 34  1  0  0  0  0
 31 32  1  0  0  0  0
 31 33  1  0  0  0  0
 34 35  1  0  0  0  0
 34 53  1  0  0  0  0
 35 36  1  0  0  0  0
 35 52  2  0  0  0  0
 36 37  1  0  0  0  0
 36 51  1  0  0  0  0
 36 73  1  0  0  0  0
 37 38  1  0  0  0  0
 38 39  1  0  0  0  0
 39 40  1  0  0  0  0
 39 50  1  0  0  0  0
 40 41  1  0  0  0  0
 40 49  2  0  0  0  0
 41 42  1  0  0  0  0
 42 43  1  0  0  0  0
 43 44  1  0  0  0  0
 43 47  1  0  0  0  0
 43 48  1  0  0  0  0
 44 45  1  0  0  0  0
 44 46  1  0  0  0  0
 50 51  1  0  0  0  0
 55 56  1  0  0  0  0
 56 57  1  0  0  0  0
 56 61  1  0  0  0  0
 57 58  1  0  0  0  0
 58 59  1  0  0  0  0
 58 71  1  0  0  0  0
 59 60  1  0  0  0  0
 60 61  1  0  0  0  0
 63 64  1  0  0  0  0
 64 65  1  0  0  0  0
 67 68  4  0  0  0  0
 67 72  4  0  0  0  0
 68 69  4  0  0  0  0
 69 70  4  0  0  0  0
 70 71  4  0  0  0  0
 71 72  4  0  0  0  0
M  END
$$$$
