mol_bioactive_29
  PyMOL3.1          3D                             0

 73 79  0  0  0  0  0  0  0  0999 V2000
   -1.6655    5.6590    1.5242 C   0  0  0  0  0  0  0  0  0  0  0  0
   -0.4537    6.4567    1.6137 C   0  0  0  0  0  0  0  0  0  0  0  0
    0.2166    6.7199    0.3805 O   0  0  0  0  0  0  0  0  0  0  0  0
   -0.4770    7.3046   -0.6915 C   0  0  0  0  0  0  0  0  0  0  0  0
    0.6069    5.9834    2.5031 C   0  0  0  0  0  0  0  0  0  0  0  0
    0.9817    7.0357    3.1976 N   0  0  0  0  0  0  0  0  0  0  0  0
    1.8376    6.9477    4.2006 C   0  0  0  0  0  0  0  0  0  0  0  0
    2.3707    5.7379    4.5822 C   0  0  0  0  0  0  0  0  0  0  0  0
    2.0119    4.5915    3.8692 C   0  0  0  0  0  0  0  0  0  0  0  0
    1.1278    4.7101    2.7998 C   0  0  0  0  0  0  0  0  0  0  0  0
    0.8218    3.5034    2.0569 C   0  0  0  0  0  0  0  0  0  0  0  0
   -0.0343    2.5503    2.5039 N   0  0  0  0  0  0  0  0  0  0  0  0
   -0.8732    2.5928    3.7464 C   0  0  0  0  0  0  0  0  0  0  0  0
   -0.4375    1.7131    4.8151 C   0  0  0  0  0  0  0  0  0  0  0  0
    1.3276    3.1404    0.7794 C   0  0  0  0  0  0  0  0  0  0  0  0
    2.1812    3.8878   -0.1992 C   0  0  0  0  0  0  0  0  0  0  0  0
    3.7395    3.7517   -0.0000 C   0  0  0  0  0  0  0  0  0  0  0  0
    4.2224    4.4030    1.2791 C   0  0  0  0  0  0  0  0  0  0  0  0
    4.4217    4.5168   -1.0973 C   0  0  0  0  0  0  0  0  0  0  0  0
    4.1514    2.3060   -0.0176 C   0  0  0  0  0  0  0  0  0  0  0  0
    4.4414    1.7382   -1.3913 O   0  0  0  0  0  0  0  0  0  0  0  0
    5.5869    0.9506   -1.7098 C   0  0  0  0  0  0  0  0  0  0  0  0
    5.7780    0.4507   -3.1309 C   0  0  0  0  0  0  0  0  0  0  0  0
    4.8733    1.0986   -4.0388 N   0  0  0  0  0  0  0  0  0  0  0  0
    4.9632    0.7927   -5.3909 N   0  0  0  0  0  0  0  0  0  0  0  0
    3.8608    0.3796   -6.0937 C   0  0  0  0  0  0  0  0  0  0  0  0
    2.5508    0.2274   -5.3645 C   0  0  0  0  0  0  0  0  0  0  0  0
    1.4307    0.6909   -6.1783 N   0  0  0  0  0  0  0  0  0  0  0  0
    0.8412    1.8836   -6.0445 C   0  0  0  0  0  0  0  0  0  0  0  0
   -0.3897    2.1322   -6.8673 C   0  0  0  0  0  0  0  0  0  0  0  0
   -0.1735    2.9689   -8.1551 C   0  0  0  0  0  0  0  0  0  0  0  0
    1.2061    3.1868   -8.5771 C   0  0  0  0  0  0  0  0  0  0  0  0
   -1.1248    2.6063   -9.2586 C   0  0  0  0  0  0  0  0  0  0  0  0
   -1.3615    2.7578   -5.9624 N   0  0  0  0  0  0  0  0  0  0  0  0
   -2.0906    1.9413   -5.1284 C   0  0  0  0  0  0  0  0  0  0  0  0
   -3.0197    2.4283   -4.0464 C   0  0  0  0  0  0  0  0  0  0  0  0
   -2.1507    2.9135   -2.9057 C   0  0  0  0  0  0  0  0  0  0  0  0
   -2.9808    3.4156   -1.7675 C   0  0  0  0  0  0  0  0  0  0  0  0
   -3.8852    2.3479   -1.3334 N   0  0  0  0  0  0  0  0  0  0  0  0
   -3.8984    1.9448   -0.0192 C   0  0  0  0  0  0  0  0  0  0  0  0
   -4.3270    0.6836    0.3859 C   0  0  0  0  0  0  0  0  0  0  0  0
   -4.6810   -0.3226    0.8726 C   0  0  0  0  0  0  0  0  0  0  0  0
   -5.1247   -1.5898    1.2935 C   0  0  0  0  0  0  0  0  0  0  0  0
   -6.1691   -1.4943    2.2571 N   0  0  0  0  0  0  0  0  0  0  0  0
   -6.4036   -2.4983    3.1971 C   0  0  0  0  0  0  0  0  0  0  0  0
   -7.0730   -0.4180    2.2484 C   0  0  0  0  0  0  0  0  0  0  0  0
   -5.6223   -2.3771    0.0824 C   0  0  0  0  0  0  0  0  0  0  0  0
   -3.9499   -2.3396    1.8700 C   0  0  0  0  0  0  0  0  0  0  0  0
   -3.4690    2.6983    0.8449 O   0  0  0  0  0  0  0  0  0  0  0  0
   -4.7138    1.7638   -2.3478 C   0  0  0  0  0  0  0  0  0  0  0  0
   -3.9419    1.3147   -3.5257 C   0  0  0  0  0  0  0  0  0  0  0  0
   -1.9302    0.7143   -5.2591 O   0  0  0  0  0  0  0  0  0  0  0  0
   -1.4328    4.2214   -5.8932 C   0  0  0  0  0  0  0  0  0  0  0  0
    1.2292    2.6564   -5.1866 O   0  0  0  0  0  0  0  0  0  0  0  0
    2.3351   -1.2876   -4.9796 C   0  0  0  0  0  0  0  0  0  0  0  0
    1.5337   -1.7220   -3.7272 C   0  0  0  0  0  0  0  0  0  0  0  0
    1.1381   -0.6112   -2.8488 C   0  0  0  0  0  0  0  0  0  0  0  0
    0.2986   -0.9929   -1.7431 N   0  0  0  0  0  0  0  0  0  0  0  0
   -0.4433   -2.2154   -1.8097 C   0  0  0  0  0  0  0  0  0  0  0  0
   -0.3132   -3.0491   -3.0293 C   0  0  0  0  0  0  0  0  0  0  0  0
    0.3884   -2.4884   -4.1630 O   0  0  0  0  0  0  0  0  0  0  0  0
    3.9303    0.0791   -7.2934 O   0  0  0  0  0  0  0  0  0  0  0  0
    6.2778    0.9908   -5.9974 C   0  0  0  0  0  0  0  0  0  0  0  0
    7.3585    0.3237   -5.1227 C   0  0  0  0  0  0  0  0  0  0  0  0
    7.2261    0.6714   -3.6443 C   0  0  0  0  0  0  0  0  0  0  0  0
    6.4606    0.6231   -0.8853 O   0  0  0  0  0  0  0  0  0  0  0  0
    0.7540    1.8849    0.5260 C   0  0  0  0  0  0  0  0  0  0  0  0
   -0.0687    1.5616    1.5973 C   0  0  0  0  0  0  0  0  0  0  0  0
   -0.7943    0.3317    1.5614 C   0  0  0  0  0  0  0  0  0  0  0  0
   -0.6479   -0.4757    0.4313 C   0  0  0  0  0  0  0  0  0  0  0  0
    0.1784   -0.1419   -0.6383 C   0  0  0  0  0  0  0  0  0  0  0  0
    0.8963    1.0650   -0.5971 C   0  0  0  0  0  0  0  0  0  0  0  0
   -3.8512    3.4263   -4.5248 F   0  0  0  0  0  0  0  0  0  0  0  0
  1  2  1  0  0  0  0
  2  3  1  0  0  0  0
  2  5  1  0  0  0  0
  3  4  1  0  0  0  0
  5  6  4  0  0  0  0
  5 10  4  0  0  0  0
  6  7  4  0  0  0  0
  7  8  4  0  0  0  0
  8  9  4  0  0  0  0
  9 10  4  0  0  0  0
 10 11  1  0  0  0  0
 11 12  4  0  0  0  0
 11 15  4  0  0  0  0
 12 13  1  0  0  0  0
 12 68  4  0  0  0  0
 13 14  1  0  0  0  0
 15 16  1  0  0  0  0
 15 67  4  0  0  0  0
 16 17  1  0  0  0  0
 17 18  1  0  0  0  0
 17 19  1  0  0  0  0
 17 20  1  0  0  0  0
 20 21  1  0  0  0  0
 21 22  1  0  0  0  0
 22 23  1  0  0  0  0
 22 66  2  0  0  0  0
 23 24  1  0  0  0  0
 23 65  1  0  0  0  0
 24 25  1  0  0  0  0
 25 26  1  0  0  0  0
 25 63  1  0  0  0  0
 26 27  1  0  0  0  0
 26 62  2  0  0  0  0
 27 28  1  0  0  0  0
 27 55  1  0  0  0  0
 28 29  1  0  0  0  0
 29 30  1  0  0  0  0
 29 54  2  0  0  0  0
 30 31  1  0  0  0  0
 30 34  1  0  0  0  0
 31 32  1  0  0  0  0
 31 33  1  0  0  0  0
 34 35  1  0  0  0  0
 34 53  1  0  0  0  0
 35 36  1  0  0  0  0
 35 52  2  0  0  0  0
 36 37  1  0  0  0  0
 36 51  1  0  0  0  0
 36 73  1  0  0  0  0
 37 38  1  0  0  0  0
 38 39  1  0  0  0  0
 39 40  1  0  0  0  0
 39 50  1  0  0  0  0
 40 41  1  0  0  0  0
 40 49  2  0  0  0  0
 41 42  1  0  0  0  0
 42 43  1  0  0  0  0
 43 44  1  0  0  0  0
 43 47  1  0  0  0  0
 43 48  1  0  0  0  0
 44 45  1  0  0  0  0
 44 46  1  0  0  0  0
 50 51  1  0  0  0  0
 55 56  1  0  0  0  0
 56 57  1  0  0  0  0
 56 61  1  0  0  0  0
 57 58  1  0  0  0  0
 58 59  1  0  0  0  0
 58 71  1  0  0  0  0
 59 60  1  0  0  0  0
 60 61  1  0  0  0  0
 63 64  1  0  0  0  0
 64 65  1  0  0  0  0
 67 68  4  0  0  0  0
 67 72  4  0  0  0  0
 68 69  4  0  0  0  0
 69 70  4  0  0  0  0
 70 71  4  0  0  0  0
 71 72  4  0  0  0  0
M  END
$$$$
