mol_ETKDG3_160
  PyMOL3.1          3D                             0

 73 79  0  0  0  0  0  0  0  0999 V2000
    4.1334    2.9469   -2.4147 C   0  0  0  0  0  0  0  0  0  0  0  0
    2.7036    2.6316   -2.6335 C   0  0  0  0  0  0  0  0  0  0  0  0
    1.8440    3.7522   -2.7143 O   0  0  0  0  0  0  0  0  0  0  0  0
    1.5878    4.4531   -1.5178 C   0  0  0  0  0  0  0  0  0  0  0  0
    2.4860    1.8404   -3.8587 C   0  0  0  0  0  0  0  0  0  0  0  0
    2.6592    2.4429   -5.0239 N   0  0  0  0  0  0  0  0  0  0  0  0
    2.5373    1.7693   -6.1894 C   0  0  0  0  0  0  0  0  0  0  0  0
    2.2308    0.4033   -6.2176 C   0  0  0  0  0  0  0  0  0  0  0  0
    2.0518   -0.2556   -4.9974 C   0  0  0  0  0  0  0  0  0  0  0  0
    2.1590    0.4865   -3.8099 C   0  0  0  0  0  0  0  0  0  0  0  0
    1.9275   -0.2039   -2.5643 C   0  0  0  0  0  0  0  0  0  0  0  0
    2.8723   -0.9533   -1.9499 N   0  0  0  0  0  0  0  0  0  0  0  0
    4.2972   -1.1628   -2.3786 C   0  0  0  0  0  0  0  0  0  0  0  0
    4.5464   -2.4922   -2.9339 C   0  0  0  0  0  0  0  0  0  0  0  0
    0.7351   -0.1579   -1.7871 C   0  0  0  0  0  0  0  0  0  0  0  0
   -0.5332    0.6472   -1.9496 C   0  0  0  0  0  0  0  0  0  0  0  0
   -1.6880    0.0087   -2.8316 C   0  0  0  0  0  0  0  0  0  0  0  0
   -1.3083   -0.0953   -4.2977 C   0  0  0  0  0  0  0  0  0  0  0  0
   -2.8551    0.9641   -2.8006 C   0  0  0  0  0  0  0  0  0  0  0  0
   -2.1094   -1.3589   -2.3262 C   0  0  0  0  0  0  0  0  0  0  0  0
   -3.1677   -1.3205   -1.2289 O   0  0  0  0  0  0  0  0  0  0  0  0
   -4.3499   -2.1126   -1.2219 C   0  0  0  0  0  0  0  0  0  0  0  0
   -5.2993   -2.0126   -0.0370 C   0  0  0  0  0  0  0  0  0  0  0  0
   -5.0741   -0.7994    0.7021 N   0  0  0  0  0  0  0  0  0  0  0  0
   -5.8877   -0.5472    1.8089 N   0  0  0  0  0  0  0  0  0  0  0  0
   -5.3560   -0.2864    3.0442 C   0  0  0  0  0  0  0  0  0  0  0  0
   -3.8643   -0.3363    3.2062 C   0  0  0  0  0  0  0  0  0  0  0  0
   -3.3609    0.6783    4.1134 N   0  0  0  0  0  0  0  0  0  0  0  0
   -2.7513    1.8047    3.7070 C   0  0  0  0  0  0  0  0  0  0  0  0
   -2.1215    2.6498    4.7659 C   0  0  0  0  0  0  0  0  0  0  0  0
   -2.9870    3.8543    5.2585 C   0  0  0  0  0  0  0  0  0  0  0  0
   -2.3839    4.5490    6.4384 C   0  0  0  0  0  0  0  0  0  0  0  0
   -4.4239    3.4867    5.4905 C   0  0  0  0  0  0  0  0  0  0  0  0
   -0.8136    3.0652    4.2490 N   0  0  0  0  0  0  0  0  0  0  0  0
    0.2559    2.2034    4.3995 C   0  0  0  0  0  0  0  0  0  0  0  0
    1.6470    2.4305    3.8579 C   0  0  0  0  0  0  0  0  0  0  0  0
    2.6888    1.4986    4.4943 C   0  0  0  0  0  0  0  0  0  0  0  0
    4.0268    1.6356    3.8406 C   0  0  0  0  0  0  0  0  0  0  0  0
    3.9125    1.5237    2.3731 N   0  0  0  0  0  0  0  0  0  0  0  0
    4.6812    0.6862    1.6042 C   0  0  0  0  0  0  0  0  0  0  0  0
    5.4012   -0.3741    2.1362 C   0  0  0  0  0  0  0  0  0  0  0  0
    6.0869   -1.2620    2.4615 C   0  0  0  0  0  0  0  0  0  0  0  0
    6.8656   -2.2855    3.0482 C   0  0  0  0  0  0  0  0  0  0  0  0
    8.2430   -1.9331    2.9717 N   0  0  0  0  0  0  0  0  0  0  0  0
    8.7256   -0.8453    3.7318 C   0  0  0  0  0  0  0  0  0  0  0  0
    9.0867   -2.4222    1.9594 C   0  0  0  0  0  0  0  0  0  0  0  0
    6.6021   -3.6000    2.3559 C   0  0  0  0  0  0  0  0  0  0  0  0
    6.4591   -2.4720    4.5039 C   0  0  0  0  0  0  0  0  0  0  0  0
    4.7011    0.8419    0.3758 O   0  0  0  0  0  0  0  0  0  0  0  0
    2.9239    2.3439    1.7426 C   0  0  0  0  0  0  0  0  0  0  0  0
    1.5900    2.1359    2.3631 C   0  0  0  0  0  0  0  0  0  0  0  0
    0.0415    1.1437    5.0173 O   0  0  0  0  0  0  0  0  0  0  0  0
   -0.7198    4.3186    3.4704 C   0  0  0  0  0  0  0  0  0  0  0  0
   -2.6401    2.0387    2.5189 O   0  0  0  0  0  0  0  0  0  0  0  0
   -3.4521   -1.7517    3.7520 C   0  0  0  0  0  0  0  0  0  0  0  0
   -1.9285   -1.9752    3.8769 C   0  0  0  0  0  0  0  0  0  0  0  0
   -1.3986   -2.1409    2.5002 C   0  0  0  0  0  0  0  0  0  0  0  0
   -0.0010   -2.4887    2.4967 N   0  0  0  0  0  0  0  0  0  0  0  0
    0.3438   -3.6448    3.3422 C   0  0  0  0  0  0  0  0  0  0  0  0
   -0.2997   -3.5120    4.7285 C   0  0  0  0  0  0  0  0  0  0  0  0
   -1.7289   -3.1974    4.6312 O   0  0  0  0  0  0  0  0  0  0  0  0
   -6.0694   -0.0582    4.0333 O   0  0  0  0  0  0  0  0  0  0  0  0
   -7.3236   -0.5119    1.5330 C   0  0  0  0  0  0  0  0  0  0  0  0
   -7.7182   -1.7799    0.7364 C   0  0  0  0  0  0  0  0  0  0  0  0
   -6.7979   -2.0464   -0.4586 C   0  0  0  0  0  0  0  0  0  0  0  0
   -4.6663   -2.8990   -2.1391 O   0  0  0  0  0  0  0  0  0  0  0  0
    1.0267   -0.9967   -0.6970 C   0  0  0  0  0  0  0  0  0  0  0  0
    2.3377   -1.4514   -0.8287 C   0  0  0  0  0  0  0  0  0  0  0  0
    2.8952   -2.2932    0.1848 C   0  0  0  0  0  0  0  0  0  0  0  0
    2.0888   -2.6043    1.2763 C   0  0  0  0  0  0  0  0  0  0  0  0
    0.7760   -2.1447    1.3877 C   0  0  0  0  0  0  0  0  0  0  0  0
    0.2291   -1.3122    0.3931 C   0  0  0  0  0  0  0  0  0  0  0  0
    2.0619    3.7290    4.0908 F   0  0  0  0  0  0  0  0  0  0  0  0
  1  2  1  0  0  0  0
  2  3  1  0  0  0  0
  2  5  1  0  0  0  0
  3  4  1  0  0  0  0
  5  6  4  0  0  0  0
  5 10  4  0  0  0  0
  6  7  4  0  0  0  0
  7  8  4  0  0  0  0
  8  9  4  0  0  0  0
  9 10  4  0  0  0  0
 10 11  1  0  0  0  0
 11 12  4  0  0  0  0
 11 15  4  0  0  0  0
 12 13  1  0  0  0  0
 12 68  4  0  0  0  0
 13 14  1  0  0  0  0
 15 16  1  0  0  0  0
 15 67  4  0  0  0  0
 16 17  1  0  0  0  0
 17 18  1  0  0  0  0
 17 19  1  0  0  0  0
 17 20  1  0  0  0  0
 20 21  1  0  0  0  0
 21 22  1  0  0  0  0
 22 23  1  0  0  0  0
 22 66  2  0  0  0  0
 23 24  1  0  0  0  0
 23 65  1  0  0  0  0
 24 25  1  0  0  0  0
 25 26  1  0  0  0  0
 25 63  1  0  0  0  0
 26 27  1  0  0  0  0
 26 62  2  0  0  0  0
 27 28  1  0  0  0  0
 27 55  1  0  0  0  0
 28 29  1  0  0  0  0
 29 30  1  0  0  0  0
 29 54  2  0  0  0  0
 30 31  1  0  0  0  0
 30 34  1  0  0  0  0
 31 32  1  0  0  0  0
 31 33  1  0  0  0  0
 34 35  1  0  0  0  0
 34 53  1  0  0  0  0
 35 36  1  0  0  0  0
 35 52  2  0  0  0  0
 36 37  1  0  0  0  0
 36 51  1  0  0  0  0
 36 73  1  0  0  0  0
 37 38  1  0  0  0  0
 38 39  1  0  0  0  0
 39 40  1  0  0  0  0
 39 50  1  0  0  0  0
 40 41  1  0  0  0  0
 40 49  2  0  0  0  0
 41 42  1  0  0  0  0
 42 43  1  0  0  0  0
 43 44  1  0  0  0  0
 43 47  1  0  0  0  0
 43 48  1  0  0  0  0
 44 45  1  0  0  0  0
 44 46  1  0  0  0  0
 50 51  1  0  0  0  0
 55 56  1  0  0  0  0
 56 57  1  0  0  0  0
 56 61  1  0  0  0  0
 57 58  1  0  0  0  0
 58 59  1  0  0  0  0
 58 71  1  0  0  0  0
 59 60  1  0  0  0  0
 60 61  1  0  0  0  0
 63 64  1  0  0  0  0
 64 65  1  0  0  0  0
 67 68  4  0  0  0  0
 67 72  4  0  0  0  0
 68 69  4  0  0  0  0
 69 70  4  0  0  0  0
 70 71  4  0  0  0  0
 71 72  4  0  0  0  0
M  END
$$$$
