mol_ETKDG3_151
  PyMOL3.1          3D                             0

 73 79  0  0  0  0  0  0  0  0999 V2000
   -4.3588   -4.2536   -5.1387 C   0  0  0  0  0  0  0  0  0  0  0  0
   -4.5810   -4.1591   -3.6752 C   0  0  0  0  0  0  0  0  0  0  0  0
   -5.8805   -3.6930   -3.3163 O   0  0  0  0  0  0  0  0  0  0  0  0
   -6.0981   -2.3073   -3.3946 C   0  0  0  0  0  0  0  0  0  0  0  0
   -4.3919   -5.4577   -2.9963 C   0  0  0  0  0  0  0  0  0  0  0  0
   -5.3743   -6.3393   -3.0827 N   0  0  0  0  0  0  0  0  0  0  0  0
   -5.2625   -7.5662   -2.5372 C   0  0  0  0  0  0  0  0  0  0  0  0
   -4.0996   -7.9687   -1.8715 C   0  0  0  0  0  0  0  0  0  0  0  0
   -3.0427   -7.0563   -1.7816 C   0  0  0  0  0  0  0  0  0  0  0  0
   -3.2056   -5.7788   -2.3283 C   0  0  0  0  0  0  0  0  0  0  0  0
   -2.1212   -4.8341   -2.1814 C   0  0  0  0  0  0  0  0  0  0  0  0
   -1.0485   -4.7956   -3.0150 N   0  0  0  0  0  0  0  0  0  0  0  0
   -0.7983   -5.6413   -4.2324 C   0  0  0  0  0  0  0  0  0  0  0  0
    0.2528   -6.6390   -4.0501 C   0  0  0  0  0  0  0  0  0  0  0  0
   -2.0401   -3.7953   -1.2169 C   0  0  0  0  0  0  0  0  0  0  0  0
   -3.0253   -3.3255   -0.1739 C   0  0  0  0  0  0  0  0  0  0  0  0
   -2.9914   -4.0682    1.2263 C   0  0  0  0  0  0  0  0  0  0  0  0
   -4.1324   -3.5020    2.0685 C   0  0  0  0  0  0  0  0  0  0  0  0
   -3.2992   -5.5118    1.1125 C   0  0  0  0  0  0  0  0  0  0  0  0
   -1.6725   -3.8917    1.9558 C   0  0  0  0  0  0  0  0  0  0  0  0
   -1.4995   -2.6004    2.7066 O   0  0  0  0  0  0  0  0  0  0  0  0
   -0.9001   -2.4874    3.9901 C   0  0  0  0  0  0  0  0  0  0  0  0
   -0.7567   -1.1029    4.5972 C   0  0  0  0  0  0  0  0  0  0  0  0
   -1.5440   -0.1569    3.8750 N   0  0  0  0  0  0  0  0  0  0  0  0
   -1.5527    1.1665    4.3155 N   0  0  0  0  0  0  0  0  0  0  0  0
   -1.2759    2.2009    3.4623 C   0  0  0  0  0  0  0  0  0  0  0  0
   -0.8993    1.8806    2.0437 C   0  0  0  0  0  0  0  0  0  0  0  0
   -1.5311    2.7799    1.0942 N   0  0  0  0  0  0  0  0  0  0  0  0
   -2.6410    2.4577    0.4025 C   0  0  0  0  0  0  0  0  0  0  0  0
   -3.0827    3.4417   -0.6285 C   0  0  0  0  0  0  0  0  0  0  0  0
   -4.2653    4.3565   -0.1589 C   0  0  0  0  0  0  0  0  0  0  0  0
   -4.6684    5.3648   -1.1829 C   0  0  0  0  0  0  0  0  0  0  0  0
   -3.9936    4.9876    1.1819 C   0  0  0  0  0  0  0  0  0  0  0  0
   -3.3916    2.6841   -1.8389 N   0  0  0  0  0  0  0  0  0  0  0  0
   -2.3640    2.3628   -2.7036 C   0  0  0  0  0  0  0  0  0  0  0  0
   -2.5351    1.5816   -3.9748 C   0  0  0  0  0  0  0  0  0  0  0  0
   -2.3430    0.1207   -3.6558 C   0  0  0  0  0  0  0  0  0  0  0  0
   -2.5859   -0.7026   -4.8273 C   0  0  0  0  0  0  0  0  0  0  0  0
   -1.8304   -0.2579   -5.9944 N   0  0  0  0  0  0  0  0  0  0  0  0
   -1.2900   -1.1990   -6.8102 C   0  0  0  0  0  0  0  0  0  0  0  0
   -0.4807   -0.8645   -7.8896 C   0  0  0  0  0  0  0  0  0  0  0  0
    0.1503   -0.7324   -8.8625 C   0  0  0  0  0  0  0  0  0  0  0  0
    0.9234   -0.3959   -9.9832 C   0  0  0  0  0  0  0  0  0  0  0  0
    0.1388    0.3795  -10.8889 N   0  0  0  0  0  0  0  0  0  0  0  0
   -0.7745   -0.2584  -11.7480 C   0  0  0  0  0  0  0  0  0  0  0  0
    0.0566    1.7739  -10.7605 C   0  0  0  0  0  0  0  0  0  0  0  0
    2.1539    0.3720   -9.5455 C   0  0  0  0  0  0  0  0  0  0  0  0
    1.4262   -1.6349  -10.7000 C   0  0  0  0  0  0  0  0  0  0  0  0
   -1.5161   -2.3907   -6.5878 O   0  0  0  0  0  0  0  0  0  0  0  0
   -1.7452    1.1554   -6.2578 C   0  0  0  0  0  0  0  0  0  0  0  0
   -1.5635    1.9962   -5.0816 C   0  0  0  0  0  0  0  0  0  0  0  0
   -1.2154    2.7307   -2.3947 O   0  0  0  0  0  0  0  0  0  0  0  0
   -4.7590    2.1678   -2.0232 C   0  0  0  0  0  0  0  0  0  0  0  0
   -3.1704    1.3707    0.5577 O   0  0  0  0  0  0  0  0  0  0  0  0
    0.6610    1.9519    1.8771 C   0  0  0  0  0  0  0  0  0  0  0  0
    1.1782    1.5264    0.4843 C   0  0  0  0  0  0  0  0  0  0  0  0
    1.0594    0.0512    0.3892 C   0  0  0  0  0  0  0  0  0  0  0  0
    1.5814   -0.4558   -0.8464 N   0  0  0  0  0  0  0  0  0  0  0  0
    2.9482   -0.0271   -1.1681 C   0  0  0  0  0  0  0  0  0  0  0  0
    3.1178    1.4829   -0.9241 C   0  0  0  0  0  0  0  0  0  0  0  0
    2.5814    1.8945    0.3776 O   0  0  0  0  0  0  0  0  0  0  0  0
   -1.2916    3.3839    3.8403 O   0  0  0  0  0  0  0  0  0  0  0  0
   -1.9528    1.3661    5.7093 C   0  0  0  0  0  0  0  0  0  0  0  0
   -1.1480    0.4060    6.6145 C   0  0  0  0  0  0  0  0  0  0  0  0
   -1.1634   -1.0379    6.0958 C   0  0  0  0  0  0  0  0  0  0  0  0
   -0.4941   -3.4548    4.6669 O   0  0  0  0  0  0  0  0  0  0  0  0
   -0.8111   -3.1668   -1.5085 C   0  0  0  0  0  0  0  0  0  0  0  0
   -0.2445   -3.8015   -2.6102 C   0  0  0  0  0  0  0  0  0  0  0  0
    0.9952   -3.3202   -3.1401 C   0  0  0  0  0  0  0  0  0  0  0  0
    1.5707   -2.2108   -2.5215 C   0  0  0  0  0  0  0  0  0  0  0  0
    0.9889   -1.5794   -1.4231 C   0  0  0  0  0  0  0  0  0  0  0  0
   -0.2310   -2.0598   -0.8998 C   0  0  0  0  0  0  0  0  0  0  0  0
   -3.7748    1.7841   -4.5319 F   0  0  0  0  0  0  0  0  0  0  0  0
  1  2  1  0  0  0  0
  2  3  1  0  0  0  0
  2  5  1  0  0  0  0
  3  4  1  0  0  0  0
  5  6  4  0  0  0  0
  5 10  4  0  0  0  0
  6  7  4  0  0  0  0
  7  8  4  0  0  0  0
  8  9  4  0  0  0  0
  9 10  4  0  0  0  0
 10 11  1  0  0  0  0
 11 12  4  0  0  0  0
 11 15  4  0  0  0  0
 12 13  1  0  0  0  0
 12 68  4  0  0  0  0
 13 14  1  0  0  0  0
 15 16  1  0  0  0  0
 15 67  4  0  0  0  0
 16 17  1  0  0  0  0
 17 18  1  0  0  0  0
 17 19  1  0  0  0  0
 17 20  1  0  0  0  0
 20 21  1  0  0  0  0
 21 22  1  0  0  0  0
 22 23  1  0  0  0  0
 22 66  2  0  0  0  0
 23 24  1  0  0  0  0
 23 65  1  0  0  0  0
 24 25  1  0  0  0  0
 25 26  1  0  0  0  0
 25 63  1  0  0  0  0
 26 27  1  0  0  0  0
 26 62  2  0  0  0  0
 27 28  1  0  0  0  0
 27 55  1  0  0  0  0
 28 29  1  0  0  0  0
 29 30  1  0  0  0  0
 29 54  2  0  0  0  0
 30 31  1  0  0  0  0
 30 34  1  0  0  0  0
 31 32  1  0  0  0  0
 31 33  1  0  0  0  0
 34 35  1  0  0  0  0
 34 53  1  0  0  0  0
 35 36  1  0  0  0  0
 35 52  2  0  0  0  0
 36 37  1  0  0  0  0
 36 51  1  0  0  0  0
 36 73  1  0  0  0  0
 37 38  1  0  0  0  0
 38 39  1  0  0  0  0
 39 40  1  0  0  0  0
 39 50  1  0  0  0  0
 40 41  1  0  0  0  0
 40 49  2  0  0  0  0
 41 42  1  0  0  0  0
 42 43  1  0  0  0  0
 43 44  1  0  0  0  0
 43 47  1  0  0  0  0
 43 48  1  0  0  0  0
 44 45  1  0  0  0  0
 44 46  1  0  0  0  0
 50 51  1  0  0  0  0
 55 56  1  0  0  0  0
 56 57  1  0  0  0  0
 56 61  1  0  0  0  0
 57 58  1  0  0  0  0
 58 59  1  0  0  0  0
 58 71  1  0  0  0  0
 59 60  1  0  0  0  0
 60 61  1  0  0  0  0
 63 64  1  0  0  0  0
 64 65  1  0  0  0  0
 67 68  4  0  0  0  0
 67 72  4  0  0  0  0
 68 69  4  0  0  0  0
 69 70  4  0  0  0  0
 70 71  4  0  0  0  0
 71 72  4  0  0  0  0
M  END
$$$$
