mol_ETKDG0_332
  PyMOL3.1          3D                             0

 73 79  0  0  0  0  0  0  0  0999 V2000
    2.0733   -1.8259   -5.8285 C   0  0  0  0  0  0  0  0  0  0  0  0
    1.9295   -2.8960   -4.8102 C   0  0  0  0  0  0  0  0  0  0  0  0
    3.1090   -3.6303   -4.5207 O   0  0  0  0  0  0  0  0  0  0  0  0
    4.0787   -2.9966   -3.7126 C   0  0  0  0  0  0  0  0  0  0  0  0
    0.8856   -3.8938   -5.1543 C   0  0  0  0  0  0  0  0  0  0  0  0
    1.1401   -4.7560   -6.1375 N   0  0  0  0  0  0  0  0  0  0  0  0
    0.2217   -5.6735   -6.5324 C   0  0  0  0  0  0  0  0  0  0  0  0
   -1.0461   -5.7466   -5.9365 C   0  0  0  0  0  0  0  0  0  0  0  0
   -1.3438   -4.8395   -4.9066 C   0  0  0  0  0  0  0  0  0  0  0  0
   -0.3487   -3.9216   -4.5017 C   0  0  0  0  0  0  0  0  0  0  0  0
   -0.6567   -3.0183   -3.4149 C   0  0  0  0  0  0  0  0  0  0  0  0
   -1.2620   -1.8123   -3.6013 N   0  0  0  0  0  0  0  0  0  0  0  0
   -1.7000   -1.1811   -4.9065 C   0  0  0  0  0  0  0  0  0  0  0  0
   -3.1634   -1.2342   -5.1023 C   0  0  0  0  0  0  0  0  0  0  0  0
   -0.3164   -3.2066   -2.0405 C   0  0  0  0  0  0  0  0  0  0  0  0
    0.4571   -4.3037   -1.3320 C   0  0  0  0  0  0  0  0  0  0  0  0
   -0.3805   -5.5469   -0.7682 C   0  0  0  0  0  0  0  0  0  0  0  0
    0.5881   -6.4052    0.0304 C   0  0  0  0  0  0  0  0  0  0  0  0
   -0.8414   -6.4526   -1.8729 C   0  0  0  0  0  0  0  0  0  0  0  0
   -1.5879   -5.1623    0.1150 C   0  0  0  0  0  0  0  0  0  0  0  0
   -1.3630   -5.0550    1.6053 O   0  0  0  0  0  0  0  0  0  0  0  0
   -2.2334   -5.6161    2.6067 C   0  0  0  0  0  0  0  0  0  0  0  0
   -1.9193   -5.3822    4.0907 C   0  0  0  0  0  0  0  0  0  0  0  0
   -0.5282   -5.0463    4.2631 N   0  0  0  0  0  0  0  0  0  0  0  0
   -0.0562   -4.8458    5.5649 N   0  0  0  0  0  0  0  0  0  0  0  0
    0.5919   -3.6870    5.9200 C   0  0  0  0  0  0  0  0  0  0  0  0
    0.7527   -2.6086    4.8854 C   0  0  0  0  0  0  0  0  0  0  0  0
    1.9948   -1.8703    5.0462 N   0  0  0  0  0  0  0  0  0  0  0  0
    3.0526   -2.0045    4.2238 C   0  0  0  0  0  0  0  0  0  0  0  0
    4.1730   -1.0262    4.4068 C   0  0  0  0  0  0  0  0  0  0  0  0
    5.4251   -1.5563    5.1748 C   0  0  0  0  0  0  0  0  0  0  0  0
    6.3086   -0.4662    5.6949 C   0  0  0  0  0  0  0  0  0  0  0  0
    5.1427   -2.6294    6.1708 C   0  0  0  0  0  0  0  0  0  0  0  0
    4.5099   -0.5529    3.0580 N   0  0  0  0  0  0  0  0  0  0  0  0
    3.7362    0.4488    2.5116 C   0  0  0  0  0  0  0  0  0  0  0  0
    3.8545    0.9607    1.0928 C   0  0  0  0  0  0  0  0  0  0  0  0
    3.0767    2.2662    0.8650 C   0  0  0  0  0  0  0  0  0  0  0  0
    3.0988    2.6654   -0.5773 C   0  0  0  0  0  0  0  0  0  0  0  0
    2.6767    1.5451   -1.4490 N   0  0  0  0  0  0  0  0  0  0  0  0
    1.7190    1.6687   -2.4202 C   0  0  0  0  0  0  0  0  0  0  0  0
    0.7948    2.6957   -2.3912 C   0  0  0  0  0  0  0  0  0  0  0  0
   -0.0029    3.5585   -2.4451 C   0  0  0  0  0  0  0  0  0  0  0  0
   -0.9025    4.6357   -2.3097 C   0  0  0  0  0  0  0  0  0  0  0  0
   -0.3669    5.9079   -2.6896 N   0  0  0  0  0  0  0  0  0  0  0  0
   -1.2088    7.0291   -2.8350 C   0  0  0  0  0  0  0  0  0  0  0  0
    1.0088    6.1597   -2.7275 C   0  0  0  0  0  0  0  0  0  0  0  0
   -1.3356    4.7217   -0.8292 C   0  0  0  0  0  0  0  0  0  0  0  0
   -2.1412    4.3478   -3.1343 C   0  0  0  0  0  0  0  0  0  0  0  0
    1.6258    0.8055   -3.3153 O   0  0  0  0  0  0  0  0  0  0  0  0
    3.3197    0.2777   -1.2373 C   0  0  0  0  0  0  0  0  0  0  0  0
    3.2556   -0.1181    0.1972 C   0  0  0  0  0  0  0  0  0  0  0  0
    2.8434    0.9402    3.2357 O   0  0  0  0  0  0  0  0  0  0  0  0
    5.5696   -1.2523    2.2929 C   0  0  0  0  0  0  0  0  0  0  0  0
    3.0069   -2.8000    3.2958 O   0  0  0  0  0  0  0  0  0  0  0  0
   -0.4630   -1.5977    4.9911 C   0  0  0  0  0  0  0  0  0  0  0  0
   -0.4740   -0.4662    3.9251 C   0  0  0  0  0  0  0  0  0  0  0  0
   -1.0493   -1.0339    2.6676 C   0  0  0  0  0  0  0  0  0  0  0  0
   -1.2310   -0.0217    1.6472 N   0  0  0  0  0  0  0  0  0  0  0  0
   -1.9624    1.1850    2.0950 C   0  0  0  0  0  0  0  0  0  0  0  0
   -1.4126    1.6937    3.4376 C   0  0  0  0  0  0  0  0  0  0  0  0
   -1.3289    0.6002    4.4207 O   0  0  0  0  0  0  0  0  0  0  0  0
    0.9955   -3.4859    7.0796 O   0  0  0  0  0  0  0  0  0  0  0  0
   -0.2440   -5.9737    6.4851 C   0  0  0  0  0  0  0  0  0  0  0  0
   -1.7246   -6.4292    6.4280 C   0  0  0  0  0  0  0  0  0  0  0  0
   -2.2218   -6.6346    4.9825 C   0  0  0  0  0  0  0  0  0  0  0  0
   -3.2515   -6.2910    2.3255 O   0  0  0  0  0  0  0  0  0  0  0  0
   -0.8066   -2.0398   -1.4202 C   0  0  0  0  0  0  0  0  0  0  0  0
   -1.3686   -1.2200   -2.4034 C   0  0  0  0  0  0  0  0  0  0  0  0
   -1.9222    0.0540   -2.0262 C   0  0  0  0  0  0  0  0  0  0  0  0
   -1.8431    0.4157   -0.6717 C   0  0  0  0  0  0  0  0  0  0  0  0
   -1.2733   -0.4171    0.2982 C   0  0  0  0  0  0  0  0  0  0  0  0
   -0.7274   -1.6655   -0.0794 C   0  0  0  0  0  0  0  0  0  0  0  0
    5.1815    1.2130    0.7601 F   0  0  0  0  0  0  0  0  0  0  0  0
  1  2  1  0  0  0  0
  2  3  1  0  0  0  0
  2  5  1  0  0  0  0
  3  4  1  0  0  0  0
  5  6  4  0  0  0  0
  5 10  4  0  0  0  0
  6  7  4  0  0  0  0
  7  8  4  0  0  0  0
  8  9  4  0  0  0  0
  9 10  4  0  0  0  0
 10 11  1  0  0  0  0
 11 12  4  0  0  0  0
 11 15  4  0  0  0  0
 12 13  1  0  0  0  0
 12 68  4  0  0  0  0
 13 14  1  0  0  0  0
 15 16  1  0  0  0  0
 15 67  4  0  0  0  0
 16 17  1  0  0  0  0
 17 18  1  0  0  0  0
 17 19  1  0  0  0  0
 17 20  1  0  0  0  0
 20 21  1  0  0  0  0
 21 22  1  0  0  0  0
 22 23  1  0  0  0  0
 22 66  2  0  0  0  0
 23 24  1  0  0  0  0
 23 65  1  0  0  0  0
 24 25  1  0  0  0  0
 25 26  1  0  0  0  0
 25 63  1  0  0  0  0
 26 27  1  0  0  0  0
 26 62  2  0  0  0  0
 27 28  1  0  0  0  0
 27 55  1  0  0  0  0
 28 29  1  0  0  0  0
 29 30  1  0  0  0  0
 29 54  2  0  0  0  0
 30 31  1  0  0  0  0
 30 34  1  0  0  0  0
 31 32  1  0  0  0  0
 31 33  1  0  0  0  0
 34 35  1  0  0  0  0
 34 53  1  0  0  0  0
 35 36  1  0  0  0  0
 35 52  2  0  0  0  0
 36 37  1  0  0  0  0
 36 51  1  0  0  0  0
 36 73  1  0  0  0  0
 37 38  1  0  0  0  0
 38 39  1  0  0  0  0
 39 40  1  0  0  0  0
 39 50  1  0  0  0  0
 40 41  1  0  0  0  0
 40 49  2  0  0  0  0
 41 42  1  0  0  0  0
 42 43  1  0  0  0  0
 43 44  1  0  0  0  0
 43 47  1  0  0  0  0
 43 48  1  0  0  0  0
 44 45  1  0  0  0  0
 44 46  1  0  0  0  0
 50 51  1  0  0  0  0
 55 56  1  0  0  0  0
 56 57  1  0  0  0  0
 56 61  1  0  0  0  0
 57 58  1  0  0  0  0
 58 59  1  0  0  0  0
 58 71  1  0  0  0  0
 59 60  1  0  0  0  0
 60 61  1  0  0  0  0
 63 64  1  0  0  0  0
 64 65  1  0  0  0  0
 67 68  4  0  0  0  0
 67 72  4  0  0  0  0
 68 69  4  0  0  0  0
 69 70  4  0  0  0  0
 70 71  4  0  0  0  0
 71 72  4  0  0  0  0
M  END
$$$$
