mol_ETKDG5_257
  PyMOL3.1          3D                             0

 73 79  0  0  0  0  0  0  0  0999 V2000
    3.3798    3.1753   -0.9024 C   0  0  0  0  0  0  0  0  0  0  0  0
    3.4605    4.0902    0.2489 C   0  0  0  0  0  0  0  0  0  0  0  0
    2.9212    5.3917    0.0055 O   0  0  0  0  0  0  0  0  0  0  0  0
    1.5201    5.4668   -0.2230 C   0  0  0  0  0  0  0  0  0  0  0  0
    4.8449    4.2475    0.7596 C   0  0  0  0  0  0  0  0  0  0  0  0
    5.6965    4.9319    0.0088 N   0  0  0  0  0  0  0  0  0  0  0  0
    6.9696    5.1439    0.4111 C   0  0  0  0  0  0  0  0  0  0  0  0
    7.4578    4.6221    1.6161 C   0  0  0  0  0  0  0  0  0  0  0  0
    6.5795    3.8877    2.4237 C   0  0  0  0  0  0  0  0  0  0  0  0
    5.2626    3.6883    1.9733 C   0  0  0  0  0  0  0  0  0  0  0  0
    4.3725    2.8933    2.7918 C   0  0  0  0  0  0  0  0  0  0  0  0
    3.7383    3.3689    3.9027 N   0  0  0  0  0  0  0  0  0  0  0  0
    3.8072    4.7618    4.4726 C   0  0  0  0  0  0  0  0  0  0  0  0
    4.6135    4.8573    5.6993 C   0  0  0  0  0  0  0  0  0  0  0  0
    3.9788    1.5457    2.5310 C   0  0  0  0  0  0  0  0  0  0  0  0
    4.3120    0.6148    1.3827 C   0  0  0  0  0  0  0  0  0  0  0  0
    5.6328   -0.2477    1.5095 C   0  0  0  0  0  0  0  0  0  0  0  0
    6.0017   -0.7390    0.0996 C   0  0  0  0  0  0  0  0  0  0  0  0
    6.8027    0.5327    1.9655 C   0  0  0  0  0  0  0  0  0  0  0  0
    5.4454   -1.4304    2.4665 C   0  0  0  0  0  0  0  0  0  0  0  0
    4.6487   -2.5806    1.9352 O   0  0  0  0  0  0  0  0  0  0  0  0
    5.0844   -3.9394    1.9607 C   0  0  0  0  0  0  0  0  0  0  0  0
    4.1069   -5.0109    1.5281 C   0  0  0  0  0  0  0  0  0  0  0  0
    3.0060   -4.4281    0.8373 N   0  0  0  0  0  0  0  0  0  0  0  0
    2.0150   -5.2789    0.3609 N   0  0  0  0  0  0  0  0  0  0  0  0
    0.6914   -5.0650    0.6581 C   0  0  0  0  0  0  0  0  0  0  0  0
    0.3031   -3.8600    1.4859 C   0  0  0  0  0  0  0  0  0  0  0  0
   -0.9196   -3.2592    0.9820 N   0  0  0  0  0  0  0  0  0  0  0  0
   -0.9389   -2.1170    0.2515 C   0  0  0  0  0  0  0  0  0  0  0  0
   -2.2948   -1.5705   -0.0838 C   0  0  0  0  0  0  0  0  0  0  0  0
   -2.7243   -1.8621   -1.5709 C   0  0  0  0  0  0  0  0  0  0  0  0
   -4.1351   -1.4652   -1.8628 C   0  0  0  0  0  0  0  0  0  0  0  0
   -2.4362   -3.2800   -1.9910 C   0  0  0  0  0  0  0  0  0  0  0  0
   -2.2705   -0.1287    0.2154 N   0  0  0  0  0  0  0  0  0  0  0  0
   -2.5131    0.2982    1.5182 C   0  0  0  0  0  0  0  0  0  0  0  0
   -2.4704    1.7474    1.9692 C   0  0  0  0  0  0  0  0  0  0  0  0
   -2.9659    1.9865    3.4121 C   0  0  0  0  0  0  0  0  0  0  0  0
   -2.8044    3.4317    3.8232 C   0  0  0  0  0  0  0  0  0  0  0  0
   -1.4391    3.9241    3.5100 N   0  0  0  0  0  0  0  0  0  0  0  0
   -0.6280    4.6256    4.3552 C   0  0  0  0  0  0  0  0  0  0  0  0
   -0.8589    4.7916    5.7100 C   0  0  0  0  0  0  0  0  0  0  0  0
   -0.9264    5.0863    6.8370 C   0  0  0  0  0  0  0  0  0  0  0  0
   -1.1280    5.3689    8.1981 C   0  0  0  0  0  0  0  0  0  0  0  0
   -2.1574    6.3510    8.3324 N   0  0  0  0  0  0  0  0  0  0  0  0
   -1.9141    7.6898    7.9352 C   0  0  0  0  0  0  0  0  0  0  0  0
   -3.4561    6.0285    8.7754 C   0  0  0  0  0  0  0  0  0  0  0  0
    0.1595    5.8986    8.8388 C   0  0  0  0  0  0  0  0  0  0  0  0
   -1.4835    4.0939    8.9366 C   0  0  0  0  0  0  0  0  0  0  0  0
    0.4207    5.1280    3.8956 O   0  0  0  0  0  0  0  0  0  0  0  0
   -0.9261    3.6342    2.2181 C   0  0  0  0  0  0  0  0  0  0  0  0
   -1.0213    2.1911    1.9148 C   0  0  0  0  0  0  0  0  0  0  0  0
   -2.7608   -0.5774    2.3710 O   0  0  0  0  0  0  0  0  0  0  0  0
   -1.8787    0.8043   -0.8560 C   0  0  0  0  0  0  0  0  0  0  0  0
    0.1010   -1.5398   -0.0136 O   0  0  0  0  0  0  0  0  0  0  0  0
    0.1058   -4.2575    3.0098 C   0  0  0  0  0  0  0  0  0  0  0  0
   -0.2803   -3.0591    3.9434 C   0  0  0  0  0  0  0  0  0  0  0  0
    0.9419   -2.2457    4.1638 C   0  0  0  0  0  0  0  0  0  0  0  0
    0.7264   -1.1320    5.0651 N   0  0  0  0  0  0  0  0  0  0  0  0
    0.1237   -1.4923    6.3593 C   0  0  0  0  0  0  0  0  0  0  0  0
   -1.0713   -2.4512    6.1497 C   0  0  0  0  0  0  0  0  0  0  0  0
   -0.7400   -3.5699    5.2301 O   0  0  0  0  0  0  0  0  0  0  0  0
   -0.1869   -5.8560    0.2763 O   0  0  0  0  0  0  0  0  0  0  0  0
    2.4784   -6.3601   -0.5246 C   0  0  0  0  0  0  0  0  0  0  0  0
    3.6795   -7.0868    0.1133 C   0  0  0  0  0  0  0  0  0  0  0  0
    4.7500   -6.1128    0.6259 C   0  0  0  0  0  0  0  0  0  0  0  0
    6.2262   -4.3117    2.3205 O   0  0  0  0  0  0  0  0  0  0  0  0
    3.0832    1.2525    3.5790 C   0  0  0  0  0  0  0  0  0  0  0  0
    2.9651    2.3833    4.3929 C   0  0  0  0  0  0  0  0  0  0  0  0
    2.0799    2.3402    5.5255 C   0  0  0  0  0  0  0  0  0  0  0  0
    1.3408    1.1593    5.7270 C   0  0  0  0  0  0  0  0  0  0  0  0
    1.4726    0.0436    4.8768 C   0  0  0  0  0  0  0  0  0  0  0  0
    2.3616    0.0908    3.7928 C   0  0  0  0  0  0  0  0  0  0  0  0
   -3.2596    2.5174    1.1324 F   0  0  0  0  0  0  0  0  0  0  0  0
  1  2  1  0  0  0  0
  2  3  1  0  0  0  0
  2  5  1  0  0  0  0
  3  4  1  0  0  0  0
  5  6  4  0  0  0  0
  5 10  4  0  0  0  0
  6  7  4  0  0  0  0
  7  8  4  0  0  0  0
  8  9  4  0  0  0  0
  9 10  4  0  0  0  0
 10 11  1  0  0  0  0
 11 12  4  0  0  0  0
 11 15  4  0  0  0  0
 12 13  1  0  0  0  0
 12 68  4  0  0  0  0
 13 14  1  0  0  0  0
 15 16  1  0  0  0  0
 15 67  4  0  0  0  0
 16 17  1  0  0  0  0
 17 18  1  0  0  0  0
 17 19  1  0  0  0  0
 17 20  1  0  0  0  0
 20 21  1  0  0  0  0
 21 22  1  0  0  0  0
 22 23  1  0  0  0  0
 22 66  2  0  0  0  0
 23 24  1  0  0  0  0
 23 65  1  0  0  0  0
 24 25  1  0  0  0  0
 25 26  1  0  0  0  0
 25 63  1  0  0  0  0
 26 27  1  0  0  0  0
 26 62  2  0  0  0  0
 27 28  1  0  0  0  0
 27 55  1  0  0  0  0
 28 29  1  0  0  0  0
 29 30  1  0  0  0  0
 29 54  2  0  0  0  0
 30 31  1  0  0  0  0
 30 34  1  0  0  0  0
 31 32  1  0  0  0  0
 31 33  1  0  0  0  0
 34 35  1  0  0  0  0
 34 53  1  0  0  0  0
 35 36  1  0  0  0  0
 35 52  2  0  0  0  0
 36 37  1  0  0  0  0
 36 51  1  0  0  0  0
 36 73  1  0  0  0  0
 37 38  1  0  0  0  0
 38 39  1  0  0  0  0
 39 40  1  0  0  0  0
 39 50  1  0  0  0  0
 40 41  1  0  0  0  0
 40 49  2  0  0  0  0
 41 42  1  0  0  0  0
 42 43  1  0  0  0  0
 43 44  1  0  0  0  0
 43 47  1  0  0  0  0
 43 48  1  0  0  0  0
 44 45  1  0  0  0  0
 44 46  1  0  0  0  0
 50 51  1  0  0  0  0
 55 56  1  0  0  0  0
 56 57  1  0  0  0  0
 56 61  1  0  0  0  0
 57 58  1  0  0  0  0
 58 59  1  0  0  0  0
 58 71  1  0  0  0  0
 59 60  1  0  0  0  0
 60 61  1  0  0  0  0
 63 64  1  0  0  0  0
 64 65  1  0  0  0  0
 67 68  4  0  0  0  0
 67 72  4  0  0  0  0
 68 69  4  0  0  0  0
 69 70  4  0  0  0  0
 70 71  4  0  0  0  0
 71 72  4  0  0  0  0
M  END
$$$$
