mol_ETKDG0_301
  PyMOL3.1          3D                             0

 73 79  0  0  0  0  0  0  0  0999 V2000
    4.3347   -2.8562    1.5908 C   0  0  0  0  0  0  0  0  0  0  0  0
    3.7156   -3.4621    0.3929 C   0  0  0  0  0  0  0  0  0  0  0  0
    3.8636   -4.8629    0.2747 O   0  0  0  0  0  0  0  0  0  0  0  0
    3.1115   -5.6666    1.1607 C   0  0  0  0  0  0  0  0  0  0  0  0
    4.2231   -2.8706   -0.8547 C   0  0  0  0  0  0  0  0  0  0  0  0
    5.4379   -3.2173   -1.2565 N   0  0  0  0  0  0  0  0  0  0  0  0
    5.9897   -2.6743   -2.3650 C   0  0  0  0  0  0  0  0  0  0  0  0
    5.3093   -1.7216   -3.1271 C   0  0  0  0  0  0  0  0  0  0  0  0
    4.0243   -1.3397   -2.7126 C   0  0  0  0  0  0  0  0  0  0  0  0
    3.4785   -1.9448   -1.5682 C   0  0  0  0  0  0  0  0  0  0  0  0
    2.1446   -1.5626   -1.1516 C   0  0  0  0  0  0  0  0  0  0  0  0
    1.8809   -0.4099   -0.4845 N   0  0  0  0  0  0  0  0  0  0  0  0
    2.8609    0.6214   -0.0063 C   0  0  0  0  0  0  0  0  0  0  0  0
    2.8082    1.8725   -0.7664 C   0  0  0  0  0  0  0  0  0  0  0  0
    0.9583   -2.3282   -1.3120 C   0  0  0  0  0  0  0  0  0  0  0  0
    0.7554   -3.7245   -1.8534 C   0  0  0  0  0  0  0  0  0  0  0  0
    0.4853   -3.8198   -3.4072 C   0  0  0  0  0  0  0  0  0  0  0  0
    0.7072   -5.2748   -3.8486 C   0  0  0  0  0  0  0  0  0  0  0  0
    1.4294   -3.0253   -4.2228 C   0  0  0  0  0  0  0  0  0  0  0  0
   -0.9090   -3.3769   -3.7033 C   0  0  0  0  0  0  0  0  0  0  0  0
   -2.0133   -4.3239   -3.3277 O   0  0  0  0  0  0  0  0  0  0  0  0
   -3.1116   -4.6212   -4.1859 C   0  0  0  0  0  0  0  0  0  0  0  0
   -4.2379   -5.4760   -3.6543 C   0  0  0  0  0  0  0  0  0  0  0  0
   -3.9124   -6.0183   -2.3695 N   0  0  0  0  0  0  0  0  0  0  0  0
   -4.8734   -6.8256   -1.7737 N   0  0  0  0  0  0  0  0  0  0  0  0
   -5.3587   -6.5357   -0.5289 C   0  0  0  0  0  0  0  0  0  0  0  0
   -4.8000   -5.3454    0.2049 C   0  0  0  0  0  0  0  0  0  0  0  0
   -4.6339   -5.6192    1.6146 N   0  0  0  0  0  0  0  0  0  0  0  0
   -3.4494   -5.9002    2.1516 C   0  0  0  0  0  0  0  0  0  0  0  0
   -3.4113   -6.0243    3.6379 C   0  0  0  0  0  0  0  0  0  0  0  0
   -3.5592   -7.4976    4.1529 C   0  0  0  0  0  0  0  0  0  0  0  0
   -4.7248   -8.2028    3.5515 C   0  0  0  0  0  0  0  0  0  0  0  0
   -3.5423   -7.5927    5.6503 C   0  0  0  0  0  0  0  0  0  0  0  0
   -2.1606   -5.3957    4.0568 N   0  0  0  0  0  0  0  0  0  0  0  0
   -2.1342   -4.0286    4.2496 C   0  0  0  0  0  0  0  0  0  0  0  0
   -0.9014   -3.2648    4.6309 C   0  0  0  0  0  0  0  0  0  0  0  0
   -1.1345   -1.9951    5.4352 C   0  0  0  0  0  0  0  0  0  0  0  0
    0.1733   -1.3744    5.7450 C   0  0  0  0  0  0  0  0  0  0  0  0
    1.0459   -1.2370    4.5572 N   0  0  0  0  0  0  0  0  0  0  0  0
    1.8927   -0.1984    4.3972 C   0  0  0  0  0  0  0  0  0  0  0  0
    2.1662    0.6183    5.4650 C   0  0  0  0  0  0  0  0  0  0  0  0
    2.5401    1.3076    6.3229 C   0  0  0  0  0  0  0  0  0  0  0  0
    2.8908    2.0294    7.4780 C   0  0  0  0  0  0  0  0  0  0  0  0
    4.3124    2.2601    7.5039 N   0  0  0  0  0  0  0  0  0  0  0  0
    4.8734    3.2940    6.7196 C   0  0  0  0  0  0  0  0  0  0  0  0
    5.1927    1.2451    7.9699 C   0  0  0  0  0  0  0  0  0  0  0  0
    2.1294    3.3494    7.5063 C   0  0  0  0  0  0  0  0  0  0  0  0
    2.4699    1.2606    8.7195 C   0  0  0  0  0  0  0  0  0  0  0  0
    2.4567   -0.0035    3.3031 O   0  0  0  0  0  0  0  0  0  0  0  0
    1.0670   -2.2713    3.5827 C   0  0  0  0  0  0  0  0  0  0  0  0
   -0.1926   -2.9109    3.3315 C   0  0  0  0  0  0  0  0  0  0  0  0
   -3.1889   -3.3951    4.0609 O   0  0  0  0  0  0  0  0  0  0  0  0
   -0.9514   -6.2238    4.1224 C   0  0  0  0  0  0  0  0  0  0  0  0
   -2.4521   -5.9463    1.4548 O   0  0  0  0  0  0  0  0  0  0  0  0
   -5.7447   -4.0869    0.0468 C   0  0  0  0  0  0  0  0  0  0  0  0
   -5.1782   -2.7920    0.6998 C   0  0  0  0  0  0  0  0  0  0  0  0
   -4.1046   -2.2872   -0.1975 C   0  0  0  0  0  0  0  0  0  0  0  0
   -3.5448   -1.0461    0.2702 N   0  0  0  0  0  0  0  0  0  0  0  0
   -4.5136    0.0084    0.5630 C   0  0  0  0  0  0  0  0  0  0  0  0
   -5.7214   -0.5443    1.3448 C   0  0  0  0  0  0  0  0  0  0  0  0
   -6.2343   -1.7952    0.7697 O   0  0  0  0  0  0  0  0  0  0  0  0
   -6.2612   -7.2120   -0.0034 O   0  0  0  0  0  0  0  0  0  0  0  0
   -5.2718   -8.0099   -2.5397 C   0  0  0  0  0  0  0  0  0  0  0  0
   -5.6360   -7.5838   -3.9772 C   0  0  0  0  0  0  0  0  0  0  0  0
   -4.5894   -6.6585   -4.6097 C   0  0  0  0  0  0  0  0  0  0  0  0
   -3.2353   -4.2343   -5.3711 O   0  0  0  0  0  0  0  0  0  0  0  0
   -0.0415   -1.5094   -0.7419 C   0  0  0  0  0  0  0  0  0  0  0  0
    0.5640   -0.3551   -0.2490 C   0  0  0  0  0  0  0  0  0  0  0  0
   -0.2338    0.6187    0.4347 C   0  0  0  0  0  0  0  0  0  0  0  0
   -1.5941    0.3587    0.5731 C   0  0  0  0  0  0  0  0  0  0  0  0
   -2.1815   -0.7996    0.0801 C   0  0  0  0  0  0  0  0  0  0  0  0
   -1.4015   -1.7556   -0.6011 C   0  0  0  0  0  0  0  0  0  0  0  0
   -0.0976   -4.0114    5.4407 F   0  0  0  0  0  0  0  0  0  0  0  0
  1  2  1  0  0  0  0
  2  3  1  0  0  0  0
  2  5  1  0  0  0  0
  3  4  1  0  0  0  0
  5  6  4  0  0  0  0
  5 10  4  0  0  0  0
  6  7  4  0  0  0  0
  7  8  4  0  0  0  0
  8  9  4  0  0  0  0
  9 10  4  0  0  0  0
 10 11  1  0  0  0  0
 11 12  4  0  0  0  0
 11 15  4  0  0  0  0
 12 13  1  0  0  0  0
 12 68  4  0  0  0  0
 13 14  1  0  0  0  0
 15 16  1  0  0  0  0
 15 67  4  0  0  0  0
 16 17  1  0  0  0  0
 17 18  1  0  0  0  0
 17 19  1  0  0  0  0
 17 20  1  0  0  0  0
 20 21  1  0  0  0  0
 21 22  1  0  0  0  0
 22 23  1  0  0  0  0
 22 66  2  0  0  0  0
 23 24  1  0  0  0  0
 23 65  1  0  0  0  0
 24 25  1  0  0  0  0
 25 26  1  0  0  0  0
 25 63  1  0  0  0  0
 26 27  1  0  0  0  0
 26 62  2  0  0  0  0
 27 28  1  0  0  0  0
 27 55  1  0  0  0  0
 28 29  1  0  0  0  0
 29 30  1  0  0  0  0
 29 54  2  0  0  0  0
 30 31  1  0  0  0  0
 30 34  1  0  0  0  0
 31 32  1  0  0  0  0
 31 33  1  0  0  0  0
 34 35  1  0  0  0  0
 34 53  1  0  0  0  0
 35 36  1  0  0  0  0
 35 52  2  0  0  0  0
 36 37  1  0  0  0  0
 36 51  1  0  0  0  0
 36 73  1  0  0  0  0
 37 38  1  0  0  0  0
 38 39  1  0  0  0  0
 39 40  1  0  0  0  0
 39 50  1  0  0  0  0
 40 41  1  0  0  0  0
 40 49  2  0  0  0  0
 41 42  1  0  0  0  0
 42 43  1  0  0  0  0
 43 44  1  0  0  0  0
 43 47  1  0  0  0  0
 43 48  1  0  0  0  0
 44 45  1  0  0  0  0
 44 46  1  0  0  0  0
 50 51  1  0  0  0  0
 55 56  1  0  0  0  0
 56 57  1  0  0  0  0
 56 61  1  0  0  0  0
 57 58  1  0  0  0  0
 58 59  1  0  0  0  0
 58 71  1  0  0  0  0
 59 60  1  0  0  0  0
 60 61  1  0  0  0  0
 63 64  1  0  0  0  0
 64 65  1  0  0  0  0
 67 68  4  0  0  0  0
 67 72  4  0  0  0  0
 68 69  4  0  0  0  0
 69 70  4  0  0  0  0
 70 71  4  0  0  0  0
 71 72  4  0  0  0  0
M  END
$$$$
