mol_ETKDG1_72
  PyMOL3.1          3D                             0

 73 79  0  0  0  0  0  0  0  0999 V2000
    0.5406   -4.7106    1.5737 C   0  0  0  0  0  0  0  0  0  0  0  0
    0.6923   -3.5147    0.7164 C   0  0  0  0  0  0  0  0  0  0  0  0
    1.9675   -2.9061    0.7629 O   0  0  0  0  0  0  0  0  0  0  0  0
    2.2631   -2.1093    1.8765 C   0  0  0  0  0  0  0  0  0  0  0  0
    0.4210   -3.8014   -0.7077 C   0  0  0  0  0  0  0  0  0  0  0  0
    1.3127   -4.5176   -1.3697 N   0  0  0  0  0  0  0  0  0  0  0  0
    1.1178   -4.8663   -2.6567 C   0  0  0  0  0  0  0  0  0  0  0  0
   -0.0356   -4.4968   -3.3458 C   0  0  0  0  0  0  0  0  0  0  0  0
   -0.9925   -3.7358   -2.6698 C   0  0  0  0  0  0  0  0  0  0  0  0
   -0.7413   -3.3725   -1.3407 C   0  0  0  0  0  0  0  0  0  0  0  0
   -1.7244   -2.5599   -0.6730 C   0  0  0  0  0  0  0  0  0  0  0  0
   -2.8567   -3.0721   -0.1356 N   0  0  0  0  0  0  0  0  0  0  0  0
   -3.2734   -4.5131   -0.0649 C   0  0  0  0  0  0  0  0  0  0  0  0
   -4.2842   -4.8747   -1.0607 C   0  0  0  0  0  0  0  0  0  0  0  0
   -1.6409   -1.1620   -0.4328 C   0  0  0  0  0  0  0  0  0  0  0  0
   -0.5397   -0.1671   -0.6947 C   0  0  0  0  0  0  0  0  0  0  0  0
   -0.5201    0.5466   -2.1060 C   0  0  0  0  0  0  0  0  0  0  0  0
    0.6411    1.5220   -2.1070 C   0  0  0  0  0  0  0  0  0  0  0  0
   -0.2171   -0.4054   -3.2068 C   0  0  0  0  0  0  0  0  0  0  0  0
   -1.8052    1.2985   -2.4145 C   0  0  0  0  0  0  0  0  0  0  0  0
   -1.8830    2.6971   -1.8647 O   0  0  0  0  0  0  0  0  0  0  0  0
   -2.4948    3.7950   -2.5169 C   0  0  0  0  0  0  0  0  0  0  0  0
   -2.4708    5.1497   -1.8312 C   0  0  0  0  0  0  0  0  0  0  0  0
   -1.6402    5.0894   -0.6704 N   0  0  0  0  0  0  0  0  0  0  0  0
   -1.4644    6.2557    0.0690 N   0  0  0  0  0  0  0  0  0  0  0  0
   -1.7199    6.2845    1.4140 C   0  0  0  0  0  0  0  0  0  0  0  0
   -2.2236    5.0365    2.0661 C   0  0  0  0  0  0  0  0  0  0  0  0
   -1.6452    4.8138    3.3728 N   0  0  0  0  0  0  0  0  0  0  0  0
   -0.6920    3.8904    3.6021 C   0  0  0  0  0  0  0  0  0  0  0  0
   -0.3479    3.6404    5.0327 C   0  0  0  0  0  0  0  0  0  0  0  0
    0.8827    4.3745    5.5910 C   0  0  0  0  0  0  0  0  0  0  0  0
    0.8158    4.6055    7.0546 C   0  0  0  0  0  0  0  0  0  0  0  0
    1.3937    5.5124    4.7957 C   0  0  0  0  0  0  0  0  0  0  0  0
   -0.2257    2.1919    5.2055 N   0  0  0  0  0  0  0  0  0  0  0  0
   -1.3676    1.4572    5.3992 C   0  0  0  0  0  0  0  0  0  0  0  0
   -1.4065   -0.0456    5.5482 C   0  0  0  0  0  0  0  0  0  0  0  0
   -1.2136   -0.6405    4.1733 C   0  0  0  0  0  0  0  0  0  0  0  0
   -1.1789   -2.1279    4.2417 C   0  0  0  0  0  0  0  0  0  0  0  0
   -2.4284   -2.6016    4.8410 N   0  0  0  0  0  0  0  0  0  0  0  0
   -3.1922   -3.5207    4.1617 C   0  0  0  0  0  0  0  0  0  0  0  0
   -4.5510   -3.7165    4.3890 C   0  0  0  0  0  0  0  0  0  0  0  0
   -5.6677   -4.0324    4.4792 C   0  0  0  0  0  0  0  0  0  0  0  0
   -7.0356   -4.2779    4.7507 C   0  0  0  0  0  0  0  0  0  0  0  0
   -7.1411   -5.3505    5.6978 N   0  0  0  0  0  0  0  0  0  0  0  0
   -7.0004   -6.6811    5.2530 C   0  0  0  0  0  0  0  0  0  0  0  0
   -6.9434   -5.1007    7.0747 C   0  0  0  0  0  0  0  0  0  0  0  0
   -7.7623   -4.6340    3.4659 C   0  0  0  0  0  0  0  0  0  0  0  0
   -7.6935   -3.0254    5.2809 C   0  0  0  0  0  0  0  0  0  0  0  0
   -2.6748   -4.1853    3.2660 O   0  0  0  0  0  0  0  0  0  0  0  0
   -2.7786   -2.0467    6.1236 C   0  0  0  0  0  0  0  0  0  0  0  0
   -2.7384   -0.5603    6.1169 C   0  0  0  0  0  0  0  0  0  0  0  0
   -2.4467    2.0784    5.4301 O   0  0  0  0  0  0  0  0  0  0  0  0
    1.0992    1.5655    5.0410 C   0  0  0  0  0  0  0  0  0  0  0  0
   -0.2403    3.2206    2.6818 O   0  0  0  0  0  0  0  0  0  0  0  0
   -3.7943    5.0965    2.1820 C   0  0  0  0  0  0  0  0  0  0  0  0
   -4.4433    3.7917    2.7048 C   0  0  0  0  0  0  0  0  0  0  0  0
   -4.3328    2.7774    1.6167 C   0  0  0  0  0  0  0  0  0  0  0  0
   -4.9956    1.5489    1.9554 N   0  0  0  0  0  0  0  0  0  0  0  0
   -6.3806    1.6982    2.4223 C   0  0  0  0  0  0  0  0  0  0  0  0
   -6.5069    2.8399    3.4392 C   0  0  0  0  0  0  0  0  0  0  0  0
   -5.8383    4.0596    2.9731 O   0  0  0  0  0  0  0  0  0  0  0  0
   -1.5943    7.3186    2.0872 O   0  0  0  0  0  0  0  0  0  0  0  0
   -0.9347    7.4018   -0.6736 C   0  0  0  0  0  0  0  0  0  0  0  0
   -1.7566    7.5941   -1.9633 C   0  0  0  0  0  0  0  0  0  0  0  0
   -1.9329    6.2857   -2.7515 C   0  0  0  0  0  0  0  0  0  0  0  0
   -3.0622    3.7265   -3.6247 O   0  0  0  0  0  0  0  0  0  0  0  0
   -2.8360   -0.8772    0.2452 C   0  0  0  0  0  0  0  0  0  0  0  0
   -3.5449   -2.0660    0.4069 C   0  0  0  0  0  0  0  0  0  0  0  0
   -4.7918   -2.0506    1.1005 C   0  0  0  0  0  0  0  0  0  0  0  0
   -5.2287   -0.8289    1.6056 C   0  0  0  0  0  0  0  0  0  0  0  0
   -4.5124    0.3493    1.4312 C   0  0  0  0  0  0  0  0  0  0  0  0
   -3.2840    0.3359    0.7416 C   0  0  0  0  0  0  0  0  0  0  0  0
   -0.4347   -0.4639    6.4382 F   0  0  0  0  0  0  0  0  0  0  0  0
  1  2  1  0  0  0  0
  2  3  1  0  0  0  0
  2  5  1  0  0  0  0
  3  4  1  0  0  0  0
  5  6  4  0  0  0  0
  5 10  4  0  0  0  0
  6  7  4  0  0  0  0
  7  8  4  0  0  0  0
  8  9  4  0  0  0  0
  9 10  4  0  0  0  0
 10 11  1  0  0  0  0
 11 12  4  0  0  0  0
 11 15  4  0  0  0  0
 12 13  1  0  0  0  0
 12 68  4  0  0  0  0
 13 14  1  0  0  0  0
 15 16  1  0  0  0  0
 15 67  4  0  0  0  0
 16 17  1  0  0  0  0
 17 18  1  0  0  0  0
 17 19  1  0  0  0  0
 17 20  1  0  0  0  0
 20 21  1  0  0  0  0
 21 22  1  0  0  0  0
 22 23  1  0  0  0  0
 22 66  2  0  0  0  0
 23 24  1  0  0  0  0
 23 65  1  0  0  0  0
 24 25  1  0  0  0  0
 25 26  1  0  0  0  0
 25 63  1  0  0  0  0
 26 27  1  0  0  0  0
 26 62  2  0  0  0  0
 27 28  1  0  0  0  0
 27 55  1  0  0  0  0
 28 29  1  0  0  0  0
 29 30  1  0  0  0  0
 29 54  2  0  0  0  0
 30 31  1  0  0  0  0
 30 34  1  0  0  0  0
 31 32  1  0  0  0  0
 31 33  1  0  0  0  0
 34 35  1  0  0  0  0
 34 53  1  0  0  0  0
 35 36  1  0  0  0  0
 35 52  2  0  0  0  0
 36 37  1  0  0  0  0
 36 51  1  0  0  0  0
 36 73  1  0  0  0  0
 37 38  1  0  0  0  0
 38 39  1  0  0  0  0
 39 40  1  0  0  0  0
 39 50  1  0  0  0  0
 40 41  1  0  0  0  0
 40 49  2  0  0  0  0
 41 42  1  0  0  0  0
 42 43  1  0  0  0  0
 43 44  1  0  0  0  0
 43 47  1  0  0  0  0
 43 48  1  0  0  0  0
 44 45  1  0  0  0  0
 44 46  1  0  0  0  0
 50 51  1  0  0  0  0
 55 56  1  0  0  0  0
 56 57  1  0  0  0  0
 56 61  1  0  0  0  0
 57 58  1  0  0  0  0
 58 59  1  0  0  0  0
 58 71  1  0  0  0  0
 59 60  1  0  0  0  0
 60 61  1  0  0  0  0
 63 64  1  0  0  0  0
 64 65  1  0  0  0  0
 67 68  4  0  0  0  0
 67 72  4  0  0  0  0
 68 69  4  0  0  0  0
 69 70  4  0  0  0  0
 70 71  4  0  0  0  0
 71 72  4  0  0  0  0
M  END
$$$$
