mol_ETKDG3_165
  PyMOL3.1          3D                             0

 73 79  0  0  0  0  0  0  0  0999 V2000
   -2.4943    6.9477    2.1061 C   0  0  0  0  0  0  0  0  0  0  0  0
   -2.1104    6.0750    3.2398 C   0  0  0  0  0  0  0  0  0  0  0  0
   -2.9724    6.1261    4.3628 O   0  0  0  0  0  0  0  0  0  0  0  0
   -4.2151    5.4826    4.2482 C   0  0  0  0  0  0  0  0  0  0  0  0
   -0.7547    6.3549    3.7385 C   0  0  0  0  0  0  0  0  0  0  0  0
   -0.5866    7.4142    4.5109 N   0  0  0  0  0  0  0  0  0  0  0  0
    0.6354    7.7621    4.9663 C   0  0  0  0  0  0  0  0  0  0  0  0
    1.7785    7.0259    4.6331 C   0  0  0  0  0  0  0  0  0  0  0  0
    1.6249    5.9112    3.8029 C   0  0  0  0  0  0  0  0  0  0  0  0
    0.3327    5.5609    3.3758 C   0  0  0  0  0  0  0  0  0  0  0  0
    0.1638    4.3818    2.5511 C   0  0  0  0  0  0  0  0  0  0  0  0
    0.4684    4.3436    1.2302 N   0  0  0  0  0  0  0  0  0  0  0  0
    1.0052    5.4596    0.3832 C   0  0  0  0  0  0  0  0  0  0  0  0
    2.4470    5.3425    0.1301 C   0  0  0  0  0  0  0  0  0  0  0  0
   -0.3975    3.1412    2.9700 C   0  0  0  0  0  0  0  0  0  0  0  0
   -0.9778    2.7160    4.2990 C   0  0  0  0  0  0  0  0  0  0  0  0
    0.0839    2.1932    5.3606 C   0  0  0  0  0  0  0  0  0  0  0  0
   -0.4636    2.5082    6.7566 C   0  0  0  0  0  0  0  0  0  0  0  0
    1.3805    2.8569    5.2596 C   0  0  0  0  0  0  0  0  0  0  0  0
    0.3553    0.7636    5.2093 C   0  0  0  0  0  0  0  0  0  0  0  0
   -0.6223   -0.3192    5.3289 O   0  0  0  0  0  0  0  0  0  0  0  0
   -0.2727   -1.6369    5.8038 C   0  0  0  0  0  0  0  0  0  0  0  0
   -1.2833   -2.7462    5.6776 C   0  0  0  0  0  0  0  0  0  0  0  0
   -2.5985   -2.2277    5.4230 N   0  0  0  0  0  0  0  0  0  0  0  0
   -3.6465   -3.1576    5.3592 N   0  0  0  0  0  0  0  0  0  0  0  0
   -4.4702   -3.2469    4.2744 C   0  0  0  0  0  0  0  0  0  0  0  0
   -4.2043   -2.3500    3.1069 C   0  0  0  0  0  0  0  0  0  0  0  0
   -5.4345   -1.8579    2.5130 N   0  0  0  0  0  0  0  0  0  0  0  0
   -5.8855   -0.6026    2.6787 C   0  0  0  0  0  0  0  0  0  0  0  0
   -7.0847   -0.2366    1.8663 C   0  0  0  0  0  0  0  0  0  0  0  0
   -8.4389   -0.2880    2.6437 C   0  0  0  0  0  0  0  0  0  0  0  0
   -9.6339   -0.1370    1.7586 C   0  0  0  0  0  0  0  0  0  0  0  0
   -8.5492   -1.4375    3.5883 C   0  0  0  0  0  0  0  0  0  0  0  0
   -6.8200    1.0800    1.2895 N   0  0  0  0  0  0  0  0  0  0  0  0
   -6.0584    1.1525    0.1435 C   0  0  0  0  0  0  0  0  0  0  0  0
   -5.6502    2.4358   -0.5321 C   0  0  0  0  0  0  0  0  0  0  0  0
   -5.1359    2.2245   -1.9664 C   0  0  0  0  0  0  0  0  0  0  0  0
   -4.6232    3.4984   -2.5524 C   0  0  0  0  0  0  0  0  0  0  0  0
   -3.6663    4.1417   -1.6314 N   0  0  0  0  0  0  0  0  0  0  0  0
   -2.4162    4.5510   -1.9930 C   0  0  0  0  0  0  0  0  0  0  0  0
   -1.7889    4.0698   -3.1236 C   0  0  0  0  0  0  0  0  0  0  0  0
   -1.1664    3.7503   -4.0343 C   0  0  0  0  0  0  0  0  0  0  0  0
   -0.4985    3.2699   -5.1761 C   0  0  0  0  0  0  0  0  0  0  0  0
    0.7304    3.9839   -5.3626 N   0  0  0  0  0  0  0  0  0  0  0  0
    1.8719    3.6107   -4.6166 C   0  0  0  0  0  0  0  0  0  0  0  0
    0.7070    5.3024   -5.8897 C   0  0  0  0  0  0  0  0  0  0  0  0
   -0.2390    1.7768   -5.0286 C   0  0  0  0  0  0  0  0  0  0  0  0
   -1.3997    3.4305   -6.3915 C   0  0  0  0  0  0  0  0  0  0  0  0
   -1.7901    5.3411   -1.2621 O   0  0  0  0  0  0  0  0  0  0  0  0
   -4.0849    4.3252   -0.2750 C   0  0  0  0  0  0  0  0  0  0  0  0
   -4.5234    3.0333    0.3036 C   0  0  0  0  0  0  0  0  0  0  0  0
   -5.6564    0.0757   -0.3504 O   0  0  0  0  0  0  0  0  0  0  0  0
   -7.2641    2.2838    2.0230 C   0  0  0  0  0  0  0  0  0  0  0  0
   -5.2636    0.2039    3.3508 O   0  0  0  0  0  0  0  0  0  0  0  0
   -3.3876   -3.1540    2.0198 C   0  0  0  0  0  0  0  0  0  0  0  0
   -2.9783   -2.3283    0.7796 C   0  0  0  0  0  0  0  0  0  0  0  0
   -1.8437   -1.4649    1.1923 C   0  0  0  0  0  0  0  0  0  0  0  0
   -1.3111   -0.7238    0.0838 N   0  0  0  0  0  0  0  0  0  0  0  0
   -0.9740   -1.5058   -1.1053 C   0  0  0  0  0  0  0  0  0  0  0  0
   -2.0915   -2.5092   -1.4403 C   0  0  0  0  0  0  0  0  0  0  0  0
   -2.5261   -3.2462   -0.2513 O   0  0  0  0  0  0  0  0  0  0  0  0
   -5.3973   -4.0797    4.2111 O   0  0  0  0  0  0  0  0  0  0  0  0
   -3.8400   -3.9747    6.5510 C   0  0  0  0  0  0  0  0  0  0  0  0
   -2.4972   -4.6396    6.9031 C   0  0  0  0  0  0  0  0  0  0  0  0
   -1.3491   -3.6242    6.9657 C   0  0  0  0  0  0  0  0  0  0  0  0
    0.8189   -1.9485    6.3720 O   0  0  0  0  0  0  0  0  0  0  0  0
   -0.3817    2.3644    1.7999 C   0  0  0  0  0  0  0  0  0  0  0  0
    0.1586    3.1282    0.7678 C   0  0  0  0  0  0  0  0  0  0  0  0
    0.2633    2.5657   -0.5379 C   0  0  0  0  0  0  0  0  0  0  0  0
   -0.2421    1.2857   -0.7231 C   0  0  0  0  0  0  0  0  0  0  0  0
   -0.7921    0.5443    0.3172 C   0  0  0  0  0  0  0  0  0  0  0  0
   -0.8578    1.0829    1.6134 C   0  0  0  0  0  0  0  0  0  0  0  0
   -6.7169    3.3157   -0.6202 F   0  0  0  0  0  0  0  0  0  0  0  0
  1  2  1  0  0  0  0
  2  3  1  0  0  0  0
  2  5  1  0  0  0  0
  3  4  1  0  0  0  0
  5  6  4  0  0  0  0
  5 10  4  0  0  0  0
  6  7  4  0  0  0  0
  7  8  4  0  0  0  0
  8  9  4  0  0  0  0
  9 10  4  0  0  0  0
 10 11  1  0  0  0  0
 11 12  4  0  0  0  0
 11 15  4  0  0  0  0
 12 13  1  0  0  0  0
 12 68  4  0  0  0  0
 13 14  1  0  0  0  0
 15 16  1  0  0  0  0
 15 67  4  0  0  0  0
 16 17  1  0  0  0  0
 17 18  1  0  0  0  0
 17 19  1  0  0  0  0
 17 20  1  0  0  0  0
 20 21  1  0  0  0  0
 21 22  1  0  0  0  0
 22 23  1  0  0  0  0
 22 66  2  0  0  0  0
 23 24  1  0  0  0  0
 23 65  1  0  0  0  0
 24 25  1  0  0  0  0
 25 26  1  0  0  0  0
 25 63  1  0  0  0  0
 26 27  1  0  0  0  0
 26 62  2  0  0  0  0
 27 28  1  0  0  0  0
 27 55  1  0  0  0  0
 28 29  1  0  0  0  0
 29 30  1  0  0  0  0
 29 54  2  0  0  0  0
 30 31  1  0  0  0  0
 30 34  1  0  0  0  0
 31 32  1  0  0  0  0
 31 33  1  0  0  0  0
 34 35  1  0  0  0  0
 34 53  1  0  0  0  0
 35 36  1  0  0  0  0
 35 52  2  0  0  0  0
 36 37  1  0  0  0  0
 36 51  1  0  0  0  0
 36 73  1  0  0  0  0
 37 38  1  0  0  0  0
 38 39  1  0  0  0  0
 39 40  1  0  0  0  0
 39 50  1  0  0  0  0
 40 41  1  0  0  0  0
 40 49  2  0  0  0  0
 41 42  1  0  0  0  0
 42 43  1  0  0  0  0
 43 44  1  0  0  0  0
 43 47  1  0  0  0  0
 43 48  1  0  0  0  0
 44 45  1  0  0  0  0
 44 46  1  0  0  0  0
 50 51  1  0  0  0  0
 55 56  1  0  0  0  0
 56 57  1  0  0  0  0
 56 61  1  0  0  0  0
 57 58  1  0  0  0  0
 58 59  1  0  0  0  0
 58 71  1  0  0  0  0
 59 60  1  0  0  0  0
 60 61  1  0  0  0  0
 63 64  1  0  0  0  0
 64 65  1  0  0  0  0
 67 68  4  0  0  0  0
 67 72  4  0  0  0  0
 68 69  4  0  0  0  0
 69 70  4  0  0  0  0
 70 71  4  0  0  0  0
 71 72  4  0  0  0  0
M  END
$$$$
