mol_ETKDG0_316
  PyMOL3.1          3D                             0

 73 79  0  0  0  0  0  0  0  0999 V2000
    4.0657   -0.0224   -0.0754 C   0  0  0  0  0  0  0  0  0  0  0  0
    3.2508    1.2155   -0.0160 C   0  0  0  0  0  0  0  0  0  0  0  0
    3.8521    2.3002    0.6850 O   0  0  0  0  0  0  0  0  0  0  0  0
    3.9793    2.1986    2.0790 C   0  0  0  0  0  0  0  0  0  0  0  0
    2.9144    1.7235   -1.3557 C   0  0  0  0  0  0  0  0  0  0  0  0
    3.8808    2.3422   -2.0171 N   0  0  0  0  0  0  0  0  0  0  0  0
    3.6887    2.8243   -3.2628 C   0  0  0  0  0  0  0  0  0  0  0  0
    2.4621    2.6833   -3.9188 C   0  0  0  0  0  0  0  0  0  0  0  0
    1.4296    2.0301   -3.2403 C   0  0  0  0  0  0  0  0  0  0  0  0
    1.6537    1.5489   -1.9382 C   0  0  0  0  0  0  0  0  0  0  0  0
    0.5567    0.8782   -1.2589 C   0  0  0  0  0  0  0  0  0  0  0  0
    0.1124   -0.3573   -1.6189 N   0  0  0  0  0  0  0  0  0  0  0  0
    0.6694   -1.2710   -2.6812 C   0  0  0  0  0  0  0  0  0  0  0  0
   -0.1838   -1.3308   -3.8860 C   0  0  0  0  0  0  0  0  0  0  0  0
   -0.1903    1.3573   -0.1424 C   0  0  0  0  0  0  0  0  0  0  0  0
    0.0100    2.5793    0.7324 C   0  0  0  0  0  0  0  0  0  0  0  0
   -0.7058    3.9212    0.2579 C   0  0  0  0  0  0  0  0  0  0  0  0
   -0.1909    5.0595    1.1395 C   0  0  0  0  0  0  0  0  0  0  0  0
   -0.3339    4.3050   -1.1303 C   0  0  0  0  0  0  0  0  0  0  0  0
   -2.2124    3.8042    0.3751 C   0  0  0  0  0  0  0  0  0  0  0  0
   -2.8412    4.0678    1.7303 O   0  0  0  0  0  0  0  0  0  0  0  0
   -4.0474    4.8266    1.9116 C   0  0  0  0  0  0  0  0  0  0  0  0
   -4.6662    4.9310    3.2943 C   0  0  0  0  0  0  0  0  0  0  0  0
   -3.9177    4.1924    4.2714 N   0  0  0  0  0  0  0  0  0  0  0  0
   -4.3932    4.1871    5.5827 N   0  0  0  0  0  0  0  0  0  0  0  0
   -4.5770    3.0061    6.2598 C   0  0  0  0  0  0  0  0  0  0  0  0
   -4.1725    1.7207    5.5911 C   0  0  0  0  0  0  0  0  0  0  0  0
   -3.6066    0.7618    6.5151 N   0  0  0  0  0  0  0  0  0  0  0  0
   -2.2956    0.6377    6.7439 C   0  0  0  0  0  0  0  0  0  0  0  0
   -1.8587   -0.5472    7.5446 C   0  0  0  0  0  0  0  0  0  0  0  0
   -1.5914   -0.2333    9.0632 C   0  0  0  0  0  0  0  0  0  0  0  0
   -1.3851   -1.4687    9.8846 C   0  0  0  0  0  0  0  0  0  0  0  0
   -2.6189    0.6843    9.6692 C   0  0  0  0  0  0  0  0  0  0  0  0
   -0.6919   -1.0974    6.8370 N   0  0  0  0  0  0  0  0  0  0  0  0
   -0.9001   -1.9738    5.7652 C   0  0  0  0  0  0  0  0  0  0  0  0
    0.1996   -2.5108    4.8690 C   0  0  0  0  0  0  0  0  0  0  0  0
   -0.1045   -3.8379    4.1687 C   0  0  0  0  0  0  0  0  0  0  0  0
    1.0136   -4.2215    3.2328 C   0  0  0  0  0  0  0  0  0  0  0  0
    1.4080   -3.1092    2.3397 N   0  0  0  0  0  0  0  0  0  0  0  0
    1.7120   -3.2370    1.0097 C   0  0  0  0  0  0  0  0  0  0  0  0
    1.8255   -4.4583    0.3698 C   0  0  0  0  0  0  0  0  0  0  0  0
    2.0238   -5.3883   -0.3347 C   0  0  0  0  0  0  0  0  0  0  0  0
    2.2092   -6.5849   -1.0560 C   0  0  0  0  0  0  0  0  0  0  0  0
    2.7303   -6.3064   -2.3701 N   0  0  0  0  0  0  0  0  0  0  0  0
    4.1127   -6.1530   -2.5800 C   0  0  0  0  0  0  0  0  0  0  0  0
    1.8745   -5.9165   -3.4217 C   0  0  0  0  0  0  0  0  0  0  0  0
    0.8994   -7.3273   -1.1689 C   0  0  0  0  0  0  0  0  0  0  0  0
    3.1594   -7.4957   -0.2996 C   0  0  0  0  0  0  0  0  0  0  0  0
    1.9182   -2.2133    0.3264 O   0  0  0  0  0  0  0  0  0  0  0  0
    1.5206   -1.8103    2.9095 C   0  0  0  0  0  0  0  0  0  0  0  0
    0.4332   -1.4424    3.8036 C   0  0  0  0  0  0  0  0  0  0  0  0
   -2.0729   -2.2979    5.5025 O   0  0  0  0  0  0  0  0  0  0  0  0
    0.6446   -0.5863    7.1954 C   0  0  0  0  0  0  0  0  0  0  0  0
   -1.5132    1.3988    6.2050 O   0  0  0  0  0  0  0  0  0  0  0  0
   -5.3958    1.0385    4.8696 C   0  0  0  0  0  0  0  0  0  0  0  0
   -5.0363   -0.2694    4.1155 C   0  0  0  0  0  0  0  0  0  0  0  0
   -4.3319    0.1249    2.8585 C   0  0  0  0  0  0  0  0  0  0  0  0
   -4.0250   -1.0099    2.0207 N   0  0  0  0  0  0  0  0  0  0  0  0
   -5.1946   -1.8839    1.7439 C   0  0  0  0  0  0  0  0  0  0  0  0
   -5.9711   -2.1947    3.0402 C   0  0  0  0  0  0  0  0  0  0  0  0
   -6.2662   -0.9699    3.7978 O   0  0  0  0  0  0  0  0  0  0  0  0
   -5.0810    2.9771    7.3976 O   0  0  0  0  0  0  0  0  0  0  0  0
   -4.6065    5.5004    6.1957 C   0  0  0  0  0  0  0  0  0  0  0  0
   -5.3912    6.4227    5.2285 C   0  0  0  0  0  0  0  0  0  0  0  0
   -4.8377    6.3924    3.7943 C   0  0  0  0  0  0  0  0  0  0  0  0
   -4.6302    5.4460    0.9965 O   0  0  0  0  0  0  0  0  0  0  0  0
   -1.1507    0.3490    0.0846 C   0  0  0  0  0  0  0  0  0  0  0  0
   -0.9164   -0.6786   -0.8236 C   0  0  0  0  0  0  0  0  0  0  0  0
   -1.7185   -1.8723   -0.7671 C   0  0  0  0  0  0  0  0  0  0  0  0
   -2.7253   -1.9326    0.1958 C   0  0  0  0  0  0  0  0  0  0  0  0
   -2.9839   -0.8926    1.0810 C   0  0  0  0  0  0  0  0  0  0  0  0
   -2.1600    0.2715    1.0535 C   0  0  0  0  0  0  0  0  0  0  0  0
    1.3514   -2.7422    5.5877 F   0  0  0  0  0  0  0  0  0  0  0  0
  1  2  1  0  0  0  0
  2  3  1  0  0  0  0
  2  5  1  0  0  0  0
  3  4  1  0  0  0  0
  5  6  4  0  0  0  0
  5 10  4  0  0  0  0
  6  7  4  0  0  0  0
  7  8  4  0  0  0  0
  8  9  4  0  0  0  0
  9 10  4  0  0  0  0
 10 11  1  0  0  0  0
 11 12  4  0  0  0  0
 11 15  4  0  0  0  0
 12 13  1  0  0  0  0
 12 68  4  0  0  0  0
 13 14  1  0  0  0  0
 15 16  1  0  0  0  0
 15 67  4  0  0  0  0
 16 17  1  0  0  0  0
 17 18  1  0  0  0  0
 17 19  1  0  0  0  0
 17 20  1  0  0  0  0
 20 21  1  0  0  0  0
 21 22  1  0  0  0  0
 22 23  1  0  0  0  0
 22 66  2  0  0  0  0
 23 24  1  0  0  0  0
 23 65  1  0  0  0  0
 24 25  1  0  0  0  0
 25 26  1  0  0  0  0
 25 63  1  0  0  0  0
 26 27  1  0  0  0  0
 26 62  2  0  0  0  0
 27 28  1  0  0  0  0
 27 55  1  0  0  0  0
 28 29  1  0  0  0  0
 29 30  1  0  0  0  0
 29 54  2  0  0  0  0
 30 31  1  0  0  0  0
 30 34  1  0  0  0  0
 31 32  1  0  0  0  0
 31 33  1  0  0  0  0
 34 35  1  0  0  0  0
 34 53  1  0  0  0  0
 35 36  1  0  0  0  0
 35 52  2  0  0  0  0
 36 37  1  0  0  0  0
 36 51  1  0  0  0  0
 36 73  1  0  0  0  0
 37 38  1  0  0  0  0
 38 39  1  0  0  0  0
 39 40  1  0  0  0  0
 39 50  1  0  0  0  0
 40 41  1  0  0  0  0
 40 49  2  0  0  0  0
 41 42  1  0  0  0  0
 42 43  1  0  0  0  0
 43 44  1  0  0  0  0
 43 47  1  0  0  0  0
 43 48  1  0  0  0  0
 44 45  1  0  0  0  0
 44 46  1  0  0  0  0
 50 51  1  0  0  0  0
 55 56  1  0  0  0  0
 56 57  1  0  0  0  0
 56 61  1  0  0  0  0
 57 58  1  0  0  0  0
 58 59  1  0  0  0  0
 58 71  1  0  0  0  0
 59 60  1  0  0  0  0
 60 61  1  0  0  0  0
 63 64  1  0  0  0  0
 64 65  1  0  0  0  0
 67 68  4  0  0  0  0
 67 72  4  0  0  0  0
 68 69  4  0  0  0  0
 69 70  4  0  0  0  0
 70 71  4  0  0  0  0
 71 72  4  0  0  0  0
M  END
$$$$
