mol_ETKDG3_199
  PyMOL3.1          3D                             0

 73 79  0  0  0  0  0  0  0  0999 V2000
   -3.7499   -2.5244    3.9141 C   0  0  0  0  0  0  0  0  0  0  0  0
   -2.6283   -1.6030    3.6381 C   0  0  0  0  0  0  0  0  0  0  0  0
   -1.4214   -1.8921    4.3039 O   0  0  0  0  0  0  0  0  0  0  0  0
   -0.6508   -2.9680    3.8108 C   0  0  0  0  0  0  0  0  0  0  0  0
   -2.9559   -0.1937    3.9228 C   0  0  0  0  0  0  0  0  0  0  0  0
   -2.9720    0.1948    5.1840 N   0  0  0  0  0  0  0  0  0  0  0  0
   -3.3151    1.4515    5.5267 C   0  0  0  0  0  0  0  0  0  0  0  0
   -3.6799    2.3948    4.5638 C   0  0  0  0  0  0  0  0  0  0  0  0
   -3.6873    2.0003    3.2141 C   0  0  0  0  0  0  0  0  0  0  0  0
   -3.2895    0.6945    2.8986 C   0  0  0  0  0  0  0  0  0  0  0  0
   -3.2291    0.2857    1.5116 C   0  0  0  0  0  0  0  0  0  0  0  0
   -4.2916   -0.2032    0.8141 N   0  0  0  0  0  0  0  0  0  0  0  0
   -5.7063   -0.3642    1.2902 C   0  0  0  0  0  0  0  0  0  0  0  0
   -6.5635    0.7391    0.8188 C   0  0  0  0  0  0  0  0  0  0  0  0
   -2.0481    0.2209    0.7259 C   0  0  0  0  0  0  0  0  0  0  0  0
   -0.6221    0.5954    1.0423 C   0  0  0  0  0  0  0  0  0  0  0  0
   -0.2673    2.1258    0.7616 C   0  0  0  0  0  0  0  0  0  0  0  0
    1.1919    2.3294    1.1045 C   0  0  0  0  0  0  0  0  0  0  0  0
   -0.9763    3.0540    1.6682 C   0  0  0  0  0  0  0  0  0  0  0  0
   -0.5324    2.5312   -0.6963 C   0  0  0  0  0  0  0  0  0  0  0  0
    0.5826    2.2039   -1.6391 O   0  0  0  0  0  0  0  0  0  0  0  0
    1.1937    3.1296   -2.5300 C   0  0  0  0  0  0  0  0  0  0  0  0
    2.3497    2.6404   -3.3911 C   0  0  0  0  0  0  0  0  0  0  0  0
    2.9548    1.5016   -2.7773 N   0  0  0  0  0  0  0  0  0  0  0  0
    4.0723    0.9445   -3.3903 N   0  0  0  0  0  0  0  0  0  0  0  0
    4.1119   -0.3848   -3.7093 C   0  0  0  0  0  0  0  0  0  0  0  0
    2.9041   -1.2259   -3.4244 C   0  0  0  0  0  0  0  0  0  0  0  0
    3.2701   -2.5283   -2.9058 N   0  0  0  0  0  0  0  0  0  0  0  0
    3.1997   -2.8412   -1.5919 C   0  0  0  0  0  0  0  0  0  0  0  0
    3.4550   -4.2709   -1.2547 C   0  0  0  0  0  0  0  0  0  0  0  0
    4.8306   -4.6019   -0.6495 C   0  0  0  0  0  0  0  0  0  0  0  0
    5.2694   -6.0000   -0.9009 C   0  0  0  0  0  0  0  0  0  0  0  0
    5.8807   -3.5713   -0.8231 C   0  0  0  0  0  0  0  0  0  0  0  0
    2.3455   -4.7194   -0.4185 N   0  0  0  0  0  0  0  0  0  0  0  0
    1.2046   -5.1206   -1.0528 C   0  0  0  0  0  0  0  0  0  0  0  0
   -0.0847   -5.5259   -0.3807 C   0  0  0  0  0  0  0  0  0  0  0  0
   -0.9178   -6.4492   -1.2747 C   0  0  0  0  0  0  0  0  0  0  0  0
   -2.2642   -6.7113   -0.6780 C   0  0  0  0  0  0  0  0  0  0  0  0
   -2.9196   -5.4342   -0.3381 N   0  0  0  0  0  0  0  0  0  0  0  0
   -4.1470   -5.0572   -0.8178 C   0  0  0  0  0  0  0  0  0  0  0  0
   -4.6333   -5.5354   -2.0140 C   0  0  0  0  0  0  0  0  0  0  0  0
   -5.1428   -5.9089   -2.9829 C   0  0  0  0  0  0  0  0  0  0  0  0
   -5.5147   -6.5237   -4.2053 C   0  0  0  0  0  0  0  0  0  0  0  0
   -5.9903   -7.8438   -3.9379 N   0  0  0  0  0  0  0  0  0  0  0  0
   -5.0766   -8.8949   -3.7287 C   0  0  0  0  0  0  0  0  0  0  0  0
   -7.3185   -8.0437   -3.5161 C   0  0  0  0  0  0  0  0  0  0  0  0
   -6.5681   -5.7163   -4.9074 C   0  0  0  0  0  0  0  0  0  0  0  0
   -4.3184   -6.5690   -5.1507 C   0  0  0  0  0  0  0  0  0  0  0  0
   -4.8178   -4.2096   -0.2058 O   0  0  0  0  0  0  0  0  0  0  0  0
   -2.1801   -4.5422    0.5032 C   0  0  0  0  0  0  0  0  0  0  0  0
   -0.8564   -4.2392   -0.1241 C   0  0  0  0  0  0  0  0  0  0  0  0
    1.2182   -5.1117   -2.2981 O   0  0  0  0  0  0  0  0  0  0  0  0
    2.4554   -4.6041    1.0439 C   0  0  0  0  0  0  0  0  0  0  0  0
    2.8063   -2.0255   -0.7732 O   0  0  0  0  0  0  0  0  0  0  0  0
    2.0468   -1.3921   -4.7448 C   0  0  0  0  0  0  0  0  0  0  0  0
    0.6823   -2.1207   -4.5513 C   0  0  0  0  0  0  0  0  0  0  0  0
   -0.2570   -1.1600   -3.9101 C   0  0  0  0  0  0  0  0  0  0  0  0
   -1.5909   -1.6970   -3.7715 N   0  0  0  0  0  0  0  0  0  0  0  0
   -2.1717   -2.2629   -4.9868 C   0  0  0  0  0  0  0  0  0  0  0  0
   -1.1473   -3.1432   -5.7280 C   0  0  0  0  0  0  0  0  0  0  0  0
    0.1599   -2.4756   -5.8574 O   0  0  0  0  0  0  0  0  0  0  0  0
    5.0953   -0.8945   -4.2665 O   0  0  0  0  0  0  0  0  0  0  0  0
    5.1977    1.8522   -3.6064 C   0  0  0  0  0  0  0  0  0  0  0  0
    4.6877    3.1292   -4.2934 C   0  0  0  0  0  0  0  0  0  0  0  0
    3.4519    3.7206   -3.6065 C   0  0  0  0  0  0  0  0  0  0  0  0
    0.8290    4.3171   -2.6649 O   0  0  0  0  0  0  0  0  0  0  0  0
   -2.4897   -0.3375   -0.4896 C   0  0  0  0  0  0  0  0  0  0  0  0
   -3.8612   -0.5710   -0.4018 C   0  0  0  0  0  0  0  0  0  0  0  0
   -4.5418   -1.1637   -1.5215 C   0  0  0  0  0  0  0  0  0  0  0  0
   -3.7603   -1.5277   -2.6332 C   0  0  0  0  0  0  0  0  0  0  0  0
   -2.3714   -1.3050   -2.6749 C   0  0  0  0  0  0  0  0  0  0  0  0
   -1.7325   -0.6897   -1.5974 C   0  0  0  0  0  0  0  0  0  0  0  0
    0.1289   -6.2031    0.8039 F   0  0  0  0  0  0  0  0  0  0  0  0
  1  2  1  0  0  0  0
  2  3  1  0  0  0  0
  2  5  1  0  0  0  0
  3  4  1  0  0  0  0
  5  6  4  0  0  0  0
  5 10  4  0  0  0  0
  6  7  4  0  0  0  0
  7  8  4  0  0  0  0
  8  9  4  0  0  0  0
  9 10  4  0  0  0  0
 10 11  1  0  0  0  0
 11 12  4  0  0  0  0
 11 15  4  0  0  0  0
 12 13  1  0  0  0  0
 12 68  4  0  0  0  0
 13 14  1  0  0  0  0
 15 16  1  0  0  0  0
 15 67  4  0  0  0  0
 16 17  1  0  0  0  0
 17 18  1  0  0  0  0
 17 19  1  0  0  0  0
 17 20  1  0  0  0  0
 20 21  1  0  0  0  0
 21 22  1  0  0  0  0
 22 23  1  0  0  0  0
 22 66  2  0  0  0  0
 23 24  1  0  0  0  0
 23 65  1  0  0  0  0
 24 25  1  0  0  0  0
 25 26  1  0  0  0  0
 25 63  1  0  0  0  0
 26 27  1  0  0  0  0
 26 62  2  0  0  0  0
 27 28  1  0  0  0  0
 27 55  1  0  0  0  0
 28 29  1  0  0  0  0
 29 30  1  0  0  0  0
 29 54  2  0  0  0  0
 30 31  1  0  0  0  0
 30 34  1  0  0  0  0
 31 32  1  0  0  0  0
 31 33  1  0  0  0  0
 34 35  1  0  0  0  0
 34 53  1  0  0  0  0
 35 36  1  0  0  0  0
 35 52  2  0  0  0  0
 36 37  1  0  0  0  0
 36 51  1  0  0  0  0
 36 73  1  0  0  0  0
 37 38  1  0  0  0  0
 38 39  1  0  0  0  0
 39 40  1  0  0  0  0
 39 50  1  0  0  0  0
 40 41  1  0  0  0  0
 40 49  2  0  0  0  0
 41 42  1  0  0  0  0
 42 43  1  0  0  0  0
 43 44  1  0  0  0  0
 43 47  1  0  0  0  0
 43 48  1  0  0  0  0
 44 45  1  0  0  0  0
 44 46  1  0  0  0  0
 50 51  1  0  0  0  0
 55 56  1  0  0  0  0
 56 57  1  0  0  0  0
 56 61  1  0  0  0  0
 57 58  1  0  0  0  0
 58 59  1  0  0  0  0
 58 71  1  0  0  0  0
 59 60  1  0  0  0  0
 60 61  1  0  0  0  0
 63 64  1  0  0  0  0
 64 65  1  0  0  0  0
 67 68  4  0  0  0  0
 67 72  4  0  0  0  0
 68 69  4  0  0  0  0
 69 70  4  0  0  0  0
 70 71  4  0  0  0  0
 71 72  4  0  0  0  0
M  END
$$$$
