mol_ETKDG2_126
  PyMOL3.1          3D                             0

 73 79  0  0  0  0  0  0  0  0999 V2000
    1.9316    4.3105   -1.8973 C   0  0  0  0  0  0  0  0  0  0  0  0
    2.7027    3.0936   -1.5704 C   0  0  0  0  0  0  0  0  0  0  0  0
    3.0841    2.3049   -2.6799 O   0  0  0  0  0  0  0  0  0  0  0  0
    2.0651    1.5641   -3.3070 C   0  0  0  0  0  0  0  0  0  0  0  0
    3.9117    3.3874   -0.7854 C   0  0  0  0  0  0  0  0  0  0  0  0
    5.0151    3.7057   -1.4340 N   0  0  0  0  0  0  0  0  0  0  0  0
    6.1463    4.0365   -0.7740 C   0  0  0  0  0  0  0  0  0  0  0  0
    6.1986    4.0639    0.6245 C   0  0  0  0  0  0  0  0  0  0  0  0
    5.0366    3.7431    1.3332 C   0  0  0  0  0  0  0  0  0  0  0  0
    3.8898    3.3814    0.6068 C   0  0  0  0  0  0  0  0  0  0  0  0
    2.7030    3.0142    1.3432 C   0  0  0  0  0  0  0  0  0  0  0  0
    1.8339    3.9221    1.8476 N   0  0  0  0  0  0  0  0  0  0  0  0
    1.9054    5.4195    1.7280 C   0  0  0  0  0  0  0  0  0  0  0  0
    2.2800    6.0869    2.9676 C   0  0  0  0  0  0  0  0  0  0  0  0
    2.2292    1.6924    1.5611 C   0  0  0  0  0  0  0  0  0  0  0  0
    2.7554    0.3604    1.0913 C   0  0  0  0  0  0  0  0  0  0  0  0
    3.7945   -0.3442    2.0675 C   0  0  0  0  0  0  0  0  0  0  0  0
    5.0881    0.4269    2.1991 C   0  0  0  0  0  0  0  0  0  0  0  0
    4.1979   -1.6511    1.4495 C   0  0  0  0  0  0  0  0  0  0  0  0
    3.2032   -0.5612    3.4539 C   0  0  0  0  0  0  0  0  0  0  0  0
    2.3913   -1.8369    3.5944 O   0  0  0  0  0  0  0  0  0  0  0  0
    2.5691   -2.7905    4.6488 C   0  0  0  0  0  0  0  0  0  0  0  0
    1.6647   -4.0099    4.7202 C   0  0  0  0  0  0  0  0  0  0  0  0
    1.0401   -4.2427    3.4512 N   0  0  0  0  0  0  0  0  0  0  0  0
    0.2291   -5.3730    3.3332 N   0  0  0  0  0  0  0  0  0  0  0  0
   -1.0612   -5.2716    2.9008 C   0  0  0  0  0  0  0  0  0  0  0  0
   -1.6012   -3.9136    2.5728 C   0  0  0  0  0  0  0  0  0  0  0  0
   -2.4667   -3.9526    1.4145 N   0  0  0  0  0  0  0  0  0  0  0  0
   -2.0647   -3.5403    0.2085 C   0  0  0  0  0  0  0  0  0  0  0  0
   -3.1050   -3.5298   -0.8590 C   0  0  0  0  0  0  0  0  0  0  0  0
   -2.8677   -4.6995   -1.8827 C   0  0  0  0  0  0  0  0  0  0  0  0
   -3.8077   -4.7043   -3.0301 C   0  0  0  0  0  0  0  0  0  0  0  0
   -2.8322   -6.0348   -1.1806 C   0  0  0  0  0  0  0  0  0  0  0  0
   -3.0633   -2.1779   -1.4412 N   0  0  0  0  0  0  0  0  0  0  0  0
   -3.7488   -1.1662   -0.8079 C   0  0  0  0  0  0  0  0  0  0  0  0
   -3.7114    0.2903   -1.2013 C   0  0  0  0  0  0  0  0  0  0  0  0
   -4.8196    1.1202   -0.5339 C   0  0  0  0  0  0  0  0  0  0  0  0
   -4.6550    2.5860   -0.7847 C   0  0  0  0  0  0  0  0  0  0  0  0
   -3.2725    3.0231   -0.5050 N   0  0  0  0  0  0  0  0  0  0  0  0
   -2.9255    4.0866    0.2749 C   0  0  0  0  0  0  0  0  0  0  0  0
   -3.7124    4.5585    1.3065 C   0  0  0  0  0  0  0  0  0  0  0  0
   -4.2808    5.0671    2.1772 C   0  0  0  0  0  0  0  0  0  0  0  0
   -5.0410    5.5940    3.2292 C   0  0  0  0  0  0  0  0  0  0  0  0
   -4.9081    7.0080    3.2783 N   0  0  0  0  0  0  0  0  0  0  0  0
   -5.9023    7.8131    3.8391 C   0  0  0  0  0  0  0  0  0  0  0  0
   -3.6261    7.5953    3.1557 C   0  0  0  0  0  0  0  0  0  0  0  0
   -6.4769    5.1718    3.0132 C   0  0  0  0  0  0  0  0  0  0  0  0
   -4.5967    5.0094    4.5682 C   0  0  0  0  0  0  0  0  0  0  0  0
   -1.8201    4.6197    0.1031 O   0  0  0  0  0  0  0  0  0  0  0  0
   -2.2321    2.2566   -1.0981 C   0  0  0  0  0  0  0  0  0  0  0  0
   -2.3683    0.8228   -0.7308 C   0  0  0  0  0  0  0  0  0  0  0  0
   -4.4193   -1.4766    0.1971 O   0  0  0  0  0  0  0  0  0  0  0  0
   -2.1857   -1.9269   -2.5907 C   0  0  0  0  0  0  0  0  0  0  0  0
   -0.9449   -3.0896    0.0504 O   0  0  0  0  0  0  0  0  0  0  0  0
   -2.3836   -3.3185    3.8105 C   0  0  0  0  0  0  0  0  0  0  0  0
   -2.8418   -1.8406    3.6302 C   0  0  0  0  0  0  0  0  0  0  0  0
   -1.6391   -0.9718    3.8257 C   0  0  0  0  0  0  0  0  0  0  0  0
   -1.9708    0.4332    3.8194 N   0  0  0  0  0  0  0  0  0  0  0  0
   -3.0609    0.8185    4.7212 C   0  0  0  0  0  0  0  0  0  0  0  0
   -4.2442   -0.1543    4.5942 C   0  0  0  0  0  0  0  0  0  0  0  0
   -3.8056   -1.5571    4.6741 O   0  0  0  0  0  0  0  0  0  0  0  0
   -1.7980   -6.2636    2.8038 O   0  0  0  0  0  0  0  0  0  0  0  0
    0.8675   -6.6495    3.6387 C   0  0  0  0  0  0  0  0  0  0  0  0
    1.5676   -6.5461    5.0063 C   0  0  0  0  0  0  0  0  0  0  0  0
    2.4466   -5.2995    5.1138 C   0  0  0  0  0  0  0  0  0  0  0  0
    3.4385   -2.6872    5.5400 O   0  0  0  0  0  0  0  0  0  0  0  0
    1.0369    1.8842    2.2793 C   0  0  0  0  0  0  0  0  0  0  0  0
    0.8327    3.2516    2.4347 C   0  0  0  0  0  0  0  0  0  0  0  0
   -0.3419    3.7119    3.1135 C   0  0  0  0  0  0  0  0  0  0  0  0
   -1.2478    2.7434    3.5520 C   0  0  0  0  0  0  0  0  0  0  0  0
   -1.0335    1.3711    3.3727 C   0  0  0  0  0  0  0  0  0  0  0  0
    0.1277    0.9293    2.7271 C   0  0  0  0  0  0  0  0  0  0  0  0
   -3.8508    0.4449   -2.5684 F   0  0  0  0  0  0  0  0  0  0  0  0
  1  2  1  0  0  0  0
  2  3  1  0  0  0  0
  2  5  1  0  0  0  0
  3  4  1  0  0  0  0
  5  6  4  0  0  0  0
  5 10  4  0  0  0  0
  6  7  4  0  0  0  0
  7  8  4  0  0  0  0
  8  9  4  0  0  0  0
  9 10  4  0  0  0  0
 10 11  1  0  0  0  0
 11 12  4  0  0  0  0
 11 15  4  0  0  0  0
 12 13  1  0  0  0  0
 12 68  4  0  0  0  0
 13 14  1  0  0  0  0
 15 16  1  0  0  0  0
 15 67  4  0  0  0  0
 16 17  1  0  0  0  0
 17 18  1  0  0  0  0
 17 19  1  0  0  0  0
 17 20  1  0  0  0  0
 20 21  1  0  0  0  0
 21 22  1  0  0  0  0
 22 23  1  0  0  0  0
 22 66  2  0  0  0  0
 23 24  1  0  0  0  0
 23 65  1  0  0  0  0
 24 25  1  0  0  0  0
 25 26  1  0  0  0  0
 25 63  1  0  0  0  0
 26 27  1  0  0  0  0
 26 62  2  0  0  0  0
 27 28  1  0  0  0  0
 27 55  1  0  0  0  0
 28 29  1  0  0  0  0
 29 30  1  0  0  0  0
 29 54  2  0  0  0  0
 30 31  1  0  0  0  0
 30 34  1  0  0  0  0
 31 32  1  0  0  0  0
 31 33  1  0  0  0  0
 34 35  1  0  0  0  0
 34 53  1  0  0  0  0
 35 36  1  0  0  0  0
 35 52  2  0  0  0  0
 36 37  1  0  0  0  0
 36 51  1  0  0  0  0
 36 73  1  0  0  0  0
 37 38  1  0  0  0  0
 38 39  1  0  0  0  0
 39 40  1  0  0  0  0
 39 50  1  0  0  0  0
 40 41  1  0  0  0  0
 40 49  2  0  0  0  0
 41 42  1  0  0  0  0
 42 43  1  0  0  0  0
 43 44  1  0  0  0  0
 43 47  1  0  0  0  0
 43 48  1  0  0  0  0
 44 45  1  0  0  0  0
 44 46  1  0  0  0  0
 50 51  1  0  0  0  0
 55 56  1  0  0  0  0
 56 57  1  0  0  0  0
 56 61  1  0  0  0  0
 57 58  1  0  0  0  0
 58 59  1  0  0  0  0
 58 71  1  0  0  0  0
 59 60  1  0  0  0  0
 60 61  1  0  0  0  0
 63 64  1  0  0  0  0
 64 65  1  0  0  0  0
 67 68  4  0  0  0  0
 67 72  4  0  0  0  0
 68 69  4  0  0  0  0
 69 70  4  0  0  0  0
 70 71  4  0  0  0  0
 71 72  4  0  0  0  0
M  END
$$$$
