mol_ETKDG5_273
  PyMOL3.1          3D                             0

 73 79  0  0  0  0  0  0  0  0999 V2000
    6.4209    1.5180   -3.4081 C   0  0  0  0  0  0  0  0  0  0  0  0
    5.8504    0.9370   -2.1740 C   0  0  0  0  0  0  0  0  0  0  0  0
    6.3588   -0.3223   -1.7882 O   0  0  0  0  0  0  0  0  0  0  0  0
    6.0643   -1.4332   -2.6080 C   0  0  0  0  0  0  0  0  0  0  0  0
    5.9817    1.8376   -1.0118 C   0  0  0  0  0  0  0  0  0  0  0  0
    7.1821    1.9633   -0.4589 N   0  0  0  0  0  0  0  0  0  0  0  0
    7.3965    2.8123    0.5726 C   0  0  0  0  0  0  0  0  0  0  0  0
    6.3651    3.6057    1.0925 C   0  0  0  0  0  0  0  0  0  0  0  0
    5.0905    3.4937    0.5155 C   0  0  0  0  0  0  0  0  0  0  0  0
    4.8976    2.5727   -0.5374 C   0  0  0  0  0  0  0  0  0  0  0  0
    3.5616    2.4237   -1.0846 C   0  0  0  0  0  0  0  0  0  0  0  0
    3.0326    3.2545   -2.0225 N   0  0  0  0  0  0  0  0  0  0  0  0
    3.7092    4.4186   -2.6977 C   0  0  0  0  0  0  0  0  0  0  0  0
    3.2280    5.7252   -2.2595 C   0  0  0  0  0  0  0  0  0  0  0  0
    2.6484    1.3694   -0.7830 C   0  0  0  0  0  0  0  0  0  0  0  0
    2.8087    0.1279    0.0720 C   0  0  0  0  0  0  0  0  0  0  0  0
    2.4253    0.2461    1.6111 C   0  0  0  0  0  0  0  0  0  0  0  0
    2.7361   -1.0952    2.2629 C   0  0  0  0  0  0  0  0  0  0  0  0
    3.2887    1.2251    2.3405 C   0  0  0  0  0  0  0  0  0  0  0  0
    0.9567    0.6123    1.8270 C   0  0  0  0  0  0  0  0  0  0  0  0
   -0.0253   -0.5351    1.8715 O   0  0  0  0  0  0  0  0  0  0  0  0
   -1.0638   -0.6691    2.8436 C   0  0  0  0  0  0  0  0  0  0  0  0
   -2.0187   -1.8517    2.7376 C   0  0  0  0  0  0  0  0  0  0  0  0
   -1.5353   -2.7908    1.7723 N   0  0  0  0  0  0  0  0  0  0  0  0
   -2.2813   -3.9462    1.5505 N   0  0  0  0  0  0  0  0  0  0  0  0
   -2.6958   -4.2848    0.2861 C   0  0  0  0  0  0  0  0  0  0  0  0
   -2.2955   -3.4018   -0.8605 C   0  0  0  0  0  0  0  0  0  0  0  0
   -1.9284   -4.1558   -2.0424 N   0  0  0  0  0  0  0  0  0  0  0  0
   -0.6456   -4.3997   -2.3937 C   0  0  0  0  0  0  0  0  0  0  0  0
   -0.4283   -5.0334   -3.7308 C   0  0  0  0  0  0  0  0  0  0  0  0
   -0.0908   -6.5678   -3.6569 C   0  0  0  0  0  0  0  0  0  0  0  0
   -0.0609   -7.2122   -5.0094 C   0  0  0  0  0  0  0  0  0  0  0  0
   -0.9751   -7.3081   -2.6950 C   0  0  0  0  0  0  0  0  0  0  0  0
    0.6358   -4.2474   -4.3826 N   0  0  0  0  0  0  0  0  0  0  0  0
    0.2964   -3.0792   -5.0432 C   0  0  0  0  0  0  0  0  0  0  0  0
    1.2966   -2.1491   -5.7025 C   0  0  0  0  0  0  0  0  0  0  0  0
    1.8904   -1.2779   -4.6077 C   0  0  0  0  0  0  0  0  0  0  0  0
    2.9245   -0.3355   -5.1589 C   0  0  0  0  0  0  0  0  0  0  0  0
    2.3261    0.4465   -6.2512 N   0  0  0  0  0  0  0  0  0  0  0  0
    2.3901    1.8169   -6.2685 C   0  0  0  0  0  0  0  0  0  0  0  0
    1.5038    2.5297   -7.0561 C   0  0  0  0  0  0  0  0  0  0  0  0
    0.8213    3.1909   -7.7168 C   0  0  0  0  0  0  0  0  0  0  0  0
   -0.1009    3.8115   -8.5872 C   0  0  0  0  0  0  0  0  0  0  0  0
    0.4497    4.9996   -9.1435 N   0  0  0  0  0  0  0  0  0  0  0  0
   -0.1051    6.2702   -8.8986 C   0  0  0  0  0  0  0  0  0  0  0  0
    1.5421    4.9392  -10.0464 C   0  0  0  0  0  0  0  0  0  0  0  0
   -1.3814    4.0929   -7.8180 C   0  0  0  0  0  0  0  0  0  0  0  0
   -0.4927    2.8626   -9.7209 C   0  0  0  0  0  0  0  0  0  0  0  0
    3.1957    2.4274   -5.5733 O   0  0  0  0  0  0  0  0  0  0  0  0
    1.6600   -0.2872   -7.2935 C   0  0  0  0  0  0  0  0  0  0  0  0
    0.6570   -1.2365   -6.7606 C   0  0  0  0  0  0  0  0  0  0  0  0
   -0.9114   -2.7665   -5.0739 O   0  0  0  0  0  0  0  0  0  0  0  0
    2.0396   -4.6557   -4.1917 C   0  0  0  0  0  0  0  0  0  0  0  0
    0.2690   -3.9979   -1.6904 O   0  0  0  0  0  0  0  0  0  0  0  0
   -3.4519   -2.3842   -1.2102 C   0  0  0  0  0  0  0  0  0  0  0  0
   -3.1000   -1.3612   -2.3332 C   0  0  0  0  0  0  0  0  0  0  0  0
   -2.1602   -0.3434   -1.7667 C   0  0  0  0  0  0  0  0  0  0  0  0
   -1.8603    0.7157   -2.7188 N   0  0  0  0  0  0  0  0  0  0  0  0
   -3.0492    1.3593   -3.3041 C   0  0  0  0  0  0  0  0  0  0  0  0
   -4.0616    0.3042   -3.7828 C   0  0  0  0  0  0  0  0  0  0  0  0
   -4.3279   -0.7046   -2.7360 O   0  0  0  0  0  0  0  0  0  0  0  0
   -3.4130   -5.2793    0.0759 O   0  0  0  0  0  0  0  0  0  0  0  0
   -2.5229   -4.7739    2.7396 C   0  0  0  0  0  0  0  0  0  0  0  0
   -3.0502   -3.8851    3.8935 C   0  0  0  0  0  0  0  0  0  0  0  0
   -2.2157   -2.6067    4.0916 C   0  0  0  0  0  0  0  0  0  0  0  0
   -1.2442    0.1278    3.7889 O   0  0  0  0  0  0  0  0  0  0  0  0
    1.5168    1.6727   -1.5732 C   0  0  0  0  0  0  0  0  0  0  0  0
    1.7897    2.8201   -2.3175 C   0  0  0  0  0  0  0  0  0  0  0  0
    0.7985    3.3133   -3.2368 C   0  0  0  0  0  0  0  0  0  0  0  0
   -0.3950    2.5790   -3.3549 C   0  0  0  0  0  0  0  0  0  0  0  0
   -0.6494    1.4247   -2.5901 C   0  0  0  0  0  0  0  0  0  0  0  0
    0.3262    0.9604   -1.6871 C   0  0  0  0  0  0  0  0  0  0  0  0
    2.2652   -2.8625   -6.3708 F   0  0  0  0  0  0  0  0  0  0  0  0
  1  2  1  0  0  0  0
  2  3  1  0  0  0  0
  2  5  1  0  0  0  0
  3  4  1  0  0  0  0
  5  6  4  0  0  0  0
  5 10  4  0  0  0  0
  6  7  4  0  0  0  0
  7  8  4  0  0  0  0
  8  9  4  0  0  0  0
  9 10  4  0  0  0  0
 10 11  1  0  0  0  0
 11 12  4  0  0  0  0
 11 15  4  0  0  0  0
 12 13  1  0  0  0  0
 12 68  4  0  0  0  0
 13 14  1  0  0  0  0
 15 16  1  0  0  0  0
 15 67  4  0  0  0  0
 16 17  1  0  0  0  0
 17 18  1  0  0  0  0
 17 19  1  0  0  0  0
 17 20  1  0  0  0  0
 20 21  1  0  0  0  0
 21 22  1  0  0  0  0
 22 23  1  0  0  0  0
 22 66  2  0  0  0  0
 23 24  1  0  0  0  0
 23 65  1  0  0  0  0
 24 25  1  0  0  0  0
 25 26  1  0  0  0  0
 25 63  1  0  0  0  0
 26 27  1  0  0  0  0
 26 62  2  0  0  0  0
 27 28  1  0  0  0  0
 27 55  1  0  0  0  0
 28 29  1  0  0  0  0
 29 30  1  0  0  0  0
 29 54  2  0  0  0  0
 30 31  1  0  0  0  0
 30 34  1  0  0  0  0
 31 32  1  0  0  0  0
 31 33  1  0  0  0  0
 34 35  1  0  0  0  0
 34 53  1  0  0  0  0
 35 36  1  0  0  0  0
 35 52  2  0  0  0  0
 36 37  1  0  0  0  0
 36 51  1  0  0  0  0
 36 73  1  0  0  0  0
 37 38  1  0  0  0  0
 38 39  1  0  0  0  0
 39 40  1  0  0  0  0
 39 50  1  0  0  0  0
 40 41  1  0  0  0  0
 40 49  2  0  0  0  0
 41 42  1  0  0  0  0
 42 43  1  0  0  0  0
 43 44  1  0  0  0  0
 43 47  1  0  0  0  0
 43 48  1  0  0  0  0
 44 45  1  0  0  0  0
 44 46  1  0  0  0  0
 50 51  1  0  0  0  0
 55 56  1  0  0  0  0
 56 57  1  0  0  0  0
 56 61  1  0  0  0  0
 57 58  1  0  0  0  0
 58 59  1  0  0  0  0
 58 71  1  0  0  0  0
 59 60  1  0  0  0  0
 60 61  1  0  0  0  0
 63 64  1  0  0  0  0
 64 65  1  0  0  0  0
 67 68  4  0  0  0  0
 67 72  4  0  0  0  0
 68 69  4  0  0  0  0
 69 70  4  0  0  0  0
 70 71  4  0  0  0  0
 71 72  4  0  0  0  0
M  END
$$$$
