mol_ETKDG3_197
  PyMOL3.1          3D                             0

 73 79  0  0  0  0  0  0  0  0999 V2000
    3.1158   -3.2087   -5.8113 C   0  0  0  0  0  0  0  0  0  0  0  0
    3.8617   -2.1565   -5.0985 C   0  0  0  0  0  0  0  0  0  0  0  0
    5.1585   -2.5369   -4.6457 O   0  0  0  0  0  0  0  0  0  0  0  0
    5.2227   -3.3588   -3.5008 C   0  0  0  0  0  0  0  0  0  0  0  0
    4.0193   -0.9321   -5.9050 C   0  0  0  0  0  0  0  0  0  0  0  0
    5.0388   -0.8800   -6.7419 N   0  0  0  0  0  0  0  0  0  0  0  0
    5.2408    0.1926   -7.5383 C   0  0  0  0  0  0  0  0  0  0  0  0
    4.3753    1.2910   -7.5199 C   0  0  0  0  0  0  0  0  0  0  0  0
    3.2765    1.2515   -6.6519 C   0  0  0  0  0  0  0  0  0  0  0  0
    3.1054    0.1278   -5.8295 C   0  0  0  0  0  0  0  0  0  0  0  0
    1.9941    0.1113   -4.9054 C   0  0  0  0  0  0  0  0  0  0  0  0
    0.7040   -0.1235   -5.2679 N   0  0  0  0  0  0  0  0  0  0  0  0
    0.1796   -0.4379   -6.6385 C   0  0  0  0  0  0  0  0  0  0  0  0
   -0.5275    0.6714   -7.2695 C   0  0  0  0  0  0  0  0  0  0  0  0
    2.0923    0.2536   -3.4972 C   0  0  0  0  0  0  0  0  0  0  0  0
    3.2854    0.4292   -2.6017 C   0  0  0  0  0  0  0  0  0  0  0  0
    3.7274    1.9273   -2.3006 C   0  0  0  0  0  0  0  0  0  0  0  0
    4.2787    2.6239   -3.5312 C   0  0  0  0  0  0  0  0  0  0  0  0
    4.8835    1.8476   -1.3480 C   0  0  0  0  0  0  0  0  0  0  0  0
    2.6174    2.8040   -1.7039 C   0  0  0  0  0  0  0  0  0  0  0  0
    2.5024    2.7596   -0.2008 O   0  0  0  0  0  0  0  0  0  0  0  0
    2.2927    3.8943    0.6381 C   0  0  0  0  0  0  0  0  0  0  0  0
    2.2282    3.6834    2.1502 C   0  0  0  0  0  0  0  0  0  0  0  0
    2.7419    2.3866    2.4702 N   0  0  0  0  0  0  0  0  0  0  0  0
    2.7969    2.0178    3.8065 N   0  0  0  0  0  0  0  0  0  0  0  0
    2.1939    0.8671    4.2359 C   0  0  0  0  0  0  0  0  0  0  0  0
    1.4591    0.0321    3.2268 C   0  0  0  0  0  0  0  0  0  0  0  0
    1.6092   -1.3901    3.4800 N   0  0  0  0  0  0  0  0  0  0  0  0
    2.4002   -2.1880    2.7332 C   0  0  0  0  0  0  0  0  0  0  0  0
    2.3103   -3.6496    3.0150 C   0  0  0  0  0  0  0  0  0  0  0  0
    3.5031   -4.2245    3.8509 C   0  0  0  0  0  0  0  0  0  0  0  0
    3.2757   -5.6408    4.2700 C   0  0  0  0  0  0  0  0  0  0  0  0
    3.8711   -3.3457    5.0124 C   0  0  0  0  0  0  0  0  0  0  0  0
    2.1693   -4.2983    1.7033 N   0  0  0  0  0  0  0  0  0  0  0  0
    0.9140   -4.3517    1.1389 C   0  0  0  0  0  0  0  0  0  0  0  0
    0.6030   -4.8800   -0.2423 C   0  0  0  0  0  0  0  0  0  0  0  0
   -0.8861   -5.2012   -0.4222 C   0  0  0  0  0  0  0  0  0  0  0  0
   -1.1911   -5.5937   -1.8366 C   0  0  0  0  0  0  0  0  0  0  0  0
   -0.6631   -4.5956   -2.7834 N   0  0  0  0  0  0  0  0  0  0  0  0
   -1.4217   -4.0076   -3.7591 C   0  0  0  0  0  0  0  0  0  0  0  0
   -2.7967   -3.8975   -3.6541 C   0  0  0  0  0  0  0  0  0  0  0  0
   -3.9564   -3.8120   -3.6703 C   0  0  0  0  0  0  0  0  0  0  0  0
   -5.3566   -3.8624   -3.4655 C   0  0  0  0  0  0  0  0  0  0  0  0
   -5.8389   -5.1350   -3.9133 N   0  0  0  0  0  0  0  0  0  0  0  0
   -6.1147   -5.3309   -5.2797 C   0  0  0  0  0  0  0  0  0  0  0  0
   -5.6234   -6.2873   -3.1212 C   0  0  0  0  0  0  0  0  0  0  0  0
   -5.6621   -3.6609   -1.9903 C   0  0  0  0  0  0  0  0  0  0  0  0
   -6.0560   -2.7479   -4.1969 C   0  0  0  0  0  0  0  0  0  0  0  0
   -0.8686   -3.5132   -4.7473 O   0  0  0  0  0  0  0  0  0  0  0  0
    0.7169   -4.2295   -2.6306 C   0  0  0  0  0  0  0  0  0  0  0  0
    0.9855   -3.7841   -1.2272 C   0  0  0  0  0  0  0  0  0  0  0  0
   -0.0327   -3.8896    1.8005 O   0  0  0  0  0  0  0  0  0  0  0  0
    3.3831   -4.7359    0.9881 C   0  0  0  0  0  0  0  0  0  0  0  0
    3.0352   -1.7322    1.8006 O   0  0  0  0  0  0  0  0  0  0  0  0
   -0.0796    0.4116    3.2435 C   0  0  0  0  0  0  0  0  0  0  0  0
   -0.9490   -0.2874    2.1562 C   0  0  0  0  0  0  0  0  0  0  0  0
   -0.6725    0.3827    0.8504 C   0  0  0  0  0  0  0  0  0  0  0  0
   -1.5261   -0.1067   -0.2142 N   0  0  0  0  0  0  0  0  0  0  0  0
   -2.9588   -0.1019    0.0875 C   0  0  0  0  0  0  0  0  0  0  0  0
   -3.2201   -0.6775    1.4870 C   0  0  0  0  0  0  0  0  0  0  0  0
   -2.3440   -0.0676    2.5016 O   0  0  0  0  0  0  0  0  0  0  0  0
    2.2033    0.5267    5.4280 O   0  0  0  0  0  0  0  0  0  0  0  0
    3.5771    2.8961    4.6777 C   0  0  0  0  0  0  0  0  0  0  0  0
    3.1282    4.3573    4.4510 C   0  0  0  0  0  0  0  0  0  0  0  0
    3.0496    4.7344    2.9613 C   0  0  0  0  0  0  0  0  0  0  0  0
    2.1570    5.0451    0.2161 O   0  0  0  0  0  0  0  0  0  0  0  0
    0.7690    0.1165   -3.0552 C   0  0  0  0  0  0  0  0  0  0  0  0
   -0.0500   -0.1007   -4.1590 C   0  0  0  0  0  0  0  0  0  0  0  0
   -1.4592   -0.2855   -3.9511 C   0  0  0  0  0  0  0  0  0  0  0  0
   -1.9219   -0.2841   -2.6264 C   0  0  0  0  0  0  0  0  0  0  0  0
   -1.0592   -0.0866   -1.5351 C   0  0  0  0  0  0  0  0  0  0  0  0
    0.3024    0.1182   -1.7515 C   0  0  0  0  0  0  0  0  0  0  0  0
    1.3002   -6.0459   -0.4984 F   0  0  0  0  0  0  0  0  0  0  0  0
  1  2  1  0  0  0  0
  2  3  1  0  0  0  0
  2  5  1  0  0  0  0
  3  4  1  0  0  0  0
  5  6  4  0  0  0  0
  5 10  4  0  0  0  0
  6  7  4  0  0  0  0
  7  8  4  0  0  0  0
  8  9  4  0  0  0  0
  9 10  4  0  0  0  0
 10 11  1  0  0  0  0
 11 12  4  0  0  0  0
 11 15  4  0  0  0  0
 12 13  1  0  0  0  0
 12 68  4  0  0  0  0
 13 14  1  0  0  0  0
 15 16  1  0  0  0  0
 15 67  4  0  0  0  0
 16 17  1  0  0  0  0
 17 18  1  0  0  0  0
 17 19  1  0  0  0  0
 17 20  1  0  0  0  0
 20 21  1  0  0  0  0
 21 22  1  0  0  0  0
 22 23  1  0  0  0  0
 22 66  2  0  0  0  0
 23 24  1  0  0  0  0
 23 65  1  0  0  0  0
 24 25  1  0  0  0  0
 25 26  1  0  0  0  0
 25 63  1  0  0  0  0
 26 27  1  0  0  0  0
 26 62  2  0  0  0  0
 27 28  1  0  0  0  0
 27 55  1  0  0  0  0
 28 29  1  0  0  0  0
 29 30  1  0  0  0  0
 29 54  2  0  0  0  0
 30 31  1  0  0  0  0
 30 34  1  0  0  0  0
 31 32  1  0  0  0  0
 31 33  1  0  0  0  0
 34 35  1  0  0  0  0
 34 53  1  0  0  0  0
 35 36  1  0  0  0  0
 35 52  2  0  0  0  0
 36 37  1  0  0  0  0
 36 51  1  0  0  0  0
 36 73  1  0  0  0  0
 37 38  1  0  0  0  0
 38 39  1  0  0  0  0
 39 40  1  0  0  0  0
 39 50  1  0  0  0  0
 40 41  1  0  0  0  0
 40 49  2  0  0  0  0
 41 42  1  0  0  0  0
 42 43  1  0  0  0  0
 43 44  1  0  0  0  0
 43 47  1  0  0  0  0
 43 48  1  0  0  0  0
 44 45  1  0  0  0  0
 44 46  1  0  0  0  0
 50 51  1  0  0  0  0
 55 56  1  0  0  0  0
 56 57  1  0  0  0  0
 56 61  1  0  0  0  0
 57 58  1  0  0  0  0
 58 59  1  0  0  0  0
 58 71  1  0  0  0  0
 59 60  1  0  0  0  0
 60 61  1  0  0  0  0
 63 64  1  0  0  0  0
 64 65  1  0  0  0  0
 67 68  4  0  0  0  0
 67 72  4  0  0  0  0
 68 69  4  0  0  0  0
 69 70  4  0  0  0  0
 70 71  4  0  0  0  0
 71 72  4  0  0  0  0
M  END
$$$$
