mol_bioactive_42
  PyMOL3.1          3D                             0

 73 79  0  0  0  0  0  0  0  0999 V2000
    3.8902    2.6544    2.9017 C   0  0  0  0  0  0  0  0  0  0  0  0
    4.1854    3.2234    1.5968 C   0  0  0  0  0  0  0  0  0  0  0  0
    3.0775    3.6982    0.8454 O   0  0  0  0  0  0  0  0  0  0  0  0
    2.1463    4.5767    1.3822 C   0  0  0  0  0  0  0  0  0  0  0  0
    4.9080    2.4067    0.6250 C   0  0  0  0  0  0  0  0  0  0  0  0
    5.8240    3.2166    0.1412 N   0  0  0  0  0  0  0  0  0  0  0  0
    6.7622    2.7989   -0.6843 C   0  0  0  0  0  0  0  0  0  0  0  0
    6.8440    1.4764   -1.0671 C   0  0  0  0  0  0  0  0  0  0  0  0
    5.8908    0.5728   -0.5846 C   0  0  0  0  0  0  0  0  0  0  0  0
    4.8906    1.0388    0.2572 C   0  0  0  0  0  0  0  0  0  0  0  0
    3.8940    0.0823    0.7079 C   0  0  0  0  0  0  0  0  0  0  0  0
    4.1084   -0.7794    1.7343 N   0  0  0  0  0  0  0  0  0  0  0  0
    5.3101   -0.8581    2.6233 C   0  0  0  0  0  0  0  0  0  0  0  0
    6.1726   -2.0004    2.3988 C   0  0  0  0  0  0  0  0  0  0  0  0
    2.5765   -0.0853    0.1863 C   0  0  0  0  0  0  0  0  0  0  0  0
    1.8280    0.6592   -0.8916 C   0  0  0  0  0  0  0  0  0  0  0  0
    1.9661    0.0639   -2.3688 C   0  0  0  0  0  0  0  0  0  0  0  0
    1.1730    0.9624   -3.2989 C   0  0  0  0  0  0  0  0  0  0  0  0
    3.3713    0.1259   -2.8543 C   0  0  0  0  0  0  0  0  0  0  0  0
    1.4548   -1.3768   -2.4746 C   0  0  0  0  0  0  0  0  0  0  0  0
   -0.0280   -1.5796   -2.6476 O   0  0  0  0  0  0  0  0  0  0  0  0
   -0.6318   -2.4288   -3.6419 C   0  0  0  0  0  0  0  0  0  0  0  0
   -2.1554   -2.5683   -3.6734 C   0  0  0  0  0  0  0  0  0  0  0  0
   -2.7671   -1.4802   -2.9708 N   0  0  0  0  0  0  0  0  0  0  0  0
   -4.1609   -1.3879   -2.9537 N   0  0  0  0  0  0  0  0  0  0  0  0
   -4.8482   -1.2640   -1.7711 C   0  0  0  0  0  0  0  0  0  0  0  0
   -4.0819   -1.3314   -0.4833 C   0  0  0  0  0  0  0  0  0  0  0  0
   -4.6072   -0.3916    0.5110 N   0  0  0  0  0  0  0  0  0  0  0  0
   -4.1339    0.8468    0.7241 C   0  0  0  0  0  0  0  0  0  0  0  0
   -4.7403    1.6068    1.8710 C   0  0  0  0  0  0  0  0  0  0  0  0
   -5.6936    2.7674    1.4337 C   0  0  0  0  0  0  0  0  0  0  0  0
   -6.4688    3.3543    2.5687 C   0  0  0  0  0  0  0  0  0  0  0  0
   -6.5540    2.4147    0.2650 C   0  0  0  0  0  0  0  0  0  0  0  0
   -3.6107    2.0621    2.6875 N   0  0  0  0  0  0  0  0  0  0  0  0
   -3.1009    1.1819    3.6112 C   0  0  0  0  0  0  0  0  0  0  0  0
   -1.8464    1.4010    4.4268 C   0  0  0  0  0  0  0  0  0  0  0  0
   -0.6866    1.0109    3.5350 C   0  0  0  0  0  0  0  0  0  0  0  0
    0.6177    1.1629    4.2507 C   0  0  0  0  0  0  0  0  0  0  0  0
    0.5955    0.3556    5.4746 N   0  0  0  0  0  0  0  0  0  0  0  0
    1.6030   -0.5487    5.7037 C   0  0  0  0  0  0  0  0  0  0  0  0
    1.4187   -1.8363    6.2284 C   0  0  0  0  0  0  0  0  0  0  0  0
    1.4760   -2.9580    6.5974 C   0  0  0  0  0  0  0  0  0  0  0  0
    1.4256   -4.3122    7.0207 C   0  0  0  0  0  0  0  0  0  0  0  0
    2.7158   -4.7234    7.4927 N   0  0  0  0  0  0  0  0  0  0  0  0
    3.0668   -4.5440    8.8422 C   0  0  0  0  0  0  0  0  0  0  0  0
    3.7847   -4.8669    6.5698 C   0  0  0  0  0  0  0  0  0  0  0  0
    0.3717   -4.4507    8.0903 C   0  0  0  0  0  0  0  0  0  0  0  0
    1.0030   -5.2187    5.8922 C   0  0  0  0  0  0  0  0  0  0  0  0
    2.7379   -0.2560    5.3560 O   0  0  0  0  0  0  0  0  0  0  0  0
   -0.5068    0.5741    6.3707 C   0  0  0  0  0  0  0  0  0  0  0  0
   -1.8221    0.5250    5.6927 C   0  0  0  0  0  0  0  0  0  0  0  0
   -3.6980    0.1023    3.7566 O   0  0  0  0  0  0  0  0  0  0  0  0
   -2.9888    3.3636    2.3991 C   0  0  0  0  0  0  0  0  0  0  0  0
   -3.1764    1.2494    0.0950 O   0  0  0  0  0  0  0  0  0  0  0  0
   -4.1674   -2.8087    0.0548 C   0  0  0  0  0  0  0  0  0  0  0  0
   -3.0620   -3.4943    0.9007 C   0  0  0  0  0  0  0  0  0  0  0  0
   -1.8360   -2.6860    0.9903 C   0  0  0  0  0  0  0  0  0  0  0  0
   -0.8535   -3.1823    1.9029 N   0  0  0  0  0  0  0  0  0  0  0  0
   -1.2055   -4.2046    2.8420 C   0  0  0  0  0  0  0  0  0  0  0  0
   -2.6449   -4.5299    2.9973 C   0  0  0  0  0  0  0  0  0  0  0  0
   -3.5981   -3.7619    2.2228 O   0  0  0  0  0  0  0  0  0  0  0  0
   -6.0845   -1.1786   -1.7364 O   0  0  0  0  0  0  0  0  0  0  0  0
   -4.8181   -1.3767   -4.2485 C   0  0  0  0  0  0  0  0  0  0  0  0
   -4.2610   -2.5122   -5.1268 C   0  0  0  0  0  0  0  0  0  0  0  0
   -2.7348   -2.5872   -5.1178 C   0  0  0  0  0  0  0  0  0  0  0  0
    0.0210   -3.0719   -4.4798 O   0  0  0  0  0  0  0  0  0  0  0  0
    2.0351   -1.1129    0.9785 C   0  0  0  0  0  0  0  0  0  0  0  0
    3.0052   -1.5221    1.8932 C   0  0  0  0  0  0  0  0  0  0  0  0
    2.6916   -2.5684    2.8101 C   0  0  0  0  0  0  0  0  0  0  0  0
    1.4032   -3.0887    2.7734 C   0  0  0  0  0  0  0  0  0  0  0  0
    0.4361   -2.6500    1.8760 C   0  0  0  0  0  0  0  0  0  0  0  0
    0.7566   -1.6527    0.9473 C   0  0  0  0  0  0  0  0  0  0  0  0
   -1.7437    2.7040    4.8657 F   0  0  0  0  0  0  0  0  0  0  0  0
  1  2  1  0  0  0  0
  2  3  1  0  0  0  0
  2  5  1  0  0  0  0
  3  4  1  0  0  0  0
  5  6  4  0  0  0  0
  5 10  4  0  0  0  0
  6  7  4  0  0  0  0
  7  8  4  0  0  0  0
  8  9  4  0  0  0  0
  9 10  4  0  0  0  0
 10 11  1  0  0  0  0
 11 12  4  0  0  0  0
 11 15  4  0  0  0  0
 12 13  1  0  0  0  0
 12 68  4  0  0  0  0
 13 14  1  0  0  0  0
 15 16  1  0  0  0  0
 15 67  4  0  0  0  0
 16 17  1  0  0  0  0
 17 18  1  0  0  0  0
 17 19  1  0  0  0  0
 17 20  1  0  0  0  0
 20 21  1  0  0  0  0
 21 22  1  0  0  0  0
 22 23  1  0  0  0  0
 22 66  2  0  0  0  0
 23 24  1  0  0  0  0
 23 65  1  0  0  0  0
 24 25  1  0  0  0  0
 25 26  1  0  0  0  0
 25 63  1  0  0  0  0
 26 27  1  0  0  0  0
 26 62  2  0  0  0  0
 27 28  1  0  0  0  0
 27 55  1  0  0  0  0
 28 29  1  0  0  0  0
 29 30  1  0  0  0  0
 29 54  2  0  0  0  0
 30 31  1  0  0  0  0
 30 34  1  0  0  0  0
 31 32  1  0  0  0  0
 31 33  1  0  0  0  0
 34 35  1  0  0  0  0
 34 53  1  0  0  0  0
 35 36  1  0  0  0  0
 35 52  2  0  0  0  0
 36 37  1  0  0  0  0
 36 51  1  0  0  0  0
 36 73  1  0  0  0  0
 37 38  1  0  0  0  0
 38 39  1  0  0  0  0
 39 40  1  0  0  0  0
 39 50  1  0  0  0  0
 40 41  1  0  0  0  0
 40 49  2  0  0  0  0
 41 42  1  0  0  0  0
 42 43  1  0  0  0  0
 43 44  1  0  0  0  0
 43 47  1  0  0  0  0
 43 48  1  0  0  0  0
 44 45  1  0  0  0  0
 44 46  1  0  0  0  0
 50 51  1  0  0  0  0
 55 56  1  0  0  0  0
 56 57  1  0  0  0  0
 56 61  1  0  0  0  0
 57 58  1  0  0  0  0
 58 59  1  0  0  0  0
 58 71  1  0  0  0  0
 59 60  1  0  0  0  0
 60 61  1  0  0  0  0
 63 64  1  0  0  0  0
 64 65  1  0  0  0  0
 67 68  4  0  0  0  0
 67 72  4  0  0  0  0
 68 69  4  0  0  0  0
 69 70  4  0  0  0  0
 70 71  4  0  0  0  0
 71 72  4  0  0  0  0
M  END
$$$$
