mol_ETKDG5_256
  PyMOL3.1          3D                             0

 73 79  0  0  0  0  0  0  0  0999 V2000
   -3.6720   -3.6732    1.2291 C   0  0  0  0  0  0  0  0  0  0  0  0
   -3.3710   -2.5557    2.1690 C   0  0  0  0  0  0  0  0  0  0  0  0
   -4.5416   -1.9075    2.6909 O   0  0  0  0  0  0  0  0  0  0  0  0
   -5.0744   -0.8508    1.9349 C   0  0  0  0  0  0  0  0  0  0  0  0
   -2.5700   -2.9957    3.3393 C   0  0  0  0  0  0  0  0  0  0  0  0
   -3.2150   -3.5311    4.3592 N   0  0  0  0  0  0  0  0  0  0  0  0
   -2.5569   -3.9787    5.4518 C   0  0  0  0  0  0  0  0  0  0  0  0
   -1.1624   -3.9190    5.5459 C   0  0  0  0  0  0  0  0  0  0  0  0
   -0.4560   -3.3713    4.4711 C   0  0  0  0  0  0  0  0  0  0  0  0
   -1.1725   -2.8975    3.3714 C   0  0  0  0  0  0  0  0  0  0  0  0
   -0.4302   -2.3034    2.2933 C   0  0  0  0  0  0  0  0  0  0  0  0
    0.2694   -3.0242    1.3712 N   0  0  0  0  0  0  0  0  0  0  0  0
    0.4627   -4.5206    1.3034 C   0  0  0  0  0  0  0  0  0  0  0  0
   -0.3408   -5.2107    0.2752 C   0  0  0  0  0  0  0  0  0  0  0  0
   -0.3458   -0.9102    2.0185 C   0  0  0  0  0  0  0  0  0  0  0  0
   -0.9829    0.2872    2.6820 C   0  0  0  0  0  0  0  0  0  0  0  0
   -0.2120    0.9259    3.9303 C   0  0  0  0  0  0  0  0  0  0  0  0
   -0.2429    0.0308    5.1527 C   0  0  0  0  0  0  0  0  0  0  0  0
   -0.9875    2.1449    4.3332 C   0  0  0  0  0  0  0  0  0  0  0  0
    1.2478    1.3117    3.6409 C   0  0  0  0  0  0  0  0  0  0  0  0
    1.4622    2.7026    3.0955 O   0  0  0  0  0  0  0  0  0  0  0  0
    2.4889    3.6008    3.5171 C   0  0  0  0  0  0  0  0  0  0  0  0
    2.6042    4.9581    2.8244 C   0  0  0  0  0  0  0  0  0  0  0  0
    1.3590    5.2724    2.1957 N   0  0  0  0  0  0  0  0  0  0  0  0
    1.2422    6.5011    1.5552 N   0  0  0  0  0  0  0  0  0  0  0  0
    0.8586    6.5769    0.2456 C   0  0  0  0  0  0  0  0  0  0  0  0
    0.6352    5.2950   -0.4966 C   0  0  0  0  0  0  0  0  0  0  0  0
   -0.4810    5.4030   -1.4113 N   0  0  0  0  0  0  0  0  0  0  0  0
   -1.6687    4.8179   -1.1911 C   0  0  0  0  0  0  0  0  0  0  0  0
   -2.6418    4.8881   -2.3170 C   0  0  0  0  0  0  0  0  0  0  0  0
   -3.7909    5.9316   -2.1174 C   0  0  0  0  0  0  0  0  0  0  0  0
   -4.5514    6.1862   -3.3825 C   0  0  0  0  0  0  0  0  0  0  0  0
   -3.3398    7.1899   -1.4495 C   0  0  0  0  0  0  0  0  0  0  0  0
   -3.1572    3.5291   -2.4903 N   0  0  0  0  0  0  0  0  0  0  0  0
   -2.4056    2.6332   -3.2139 C   0  0  0  0  0  0  0  0  0  0  0  0
   -2.7598    1.1856   -3.4289 C   0  0  0  0  0  0  0  0  0  0  0  0
   -1.9684    0.5477   -4.5805 C   0  0  0  0  0  0  0  0  0  0  0  0
   -2.2600   -0.9079   -4.6895 C   0  0  0  0  0  0  0  0  0  0  0  0
   -2.1009   -1.5683   -3.3831 N   0  0  0  0  0  0  0  0  0  0  0  0
   -1.3589   -2.6860   -3.2044 C   0  0  0  0  0  0  0  0  0  0  0  0
   -0.3864   -3.0663   -4.1092 C   0  0  0  0  0  0  0  0  0  0  0  0
    0.4029   -3.4780   -4.8530 C   0  0  0  0  0  0  0  0  0  0  0  0
    1.3217   -3.7986   -5.8560 C   0  0  0  0  0  0  0  0  0  0  0  0
    0.6785   -3.8964   -7.1303 N   0  0  0  0  0  0  0  0  0  0  0  0
    1.1223   -4.7994   -8.1082 C   0  0  0  0  0  0  0  0  0  0  0  0
   -0.1476   -2.8421   -7.5853 C   0  0  0  0  0  0  0  0  0  0  0  0
    1.9983   -5.0970   -5.4996 C   0  0  0  0  0  0  0  0  0  0  0  0
    2.4134   -2.7218   -5.9484 C   0  0  0  0  0  0  0  0  0  0  0  0
   -1.5252   -3.3593   -2.1769 O   0  0  0  0  0  0  0  0  0  0  0  0
   -2.7622   -0.9774   -2.2569 C   0  0  0  0  0  0  0  0  0  0  0  0
   -2.4213    0.4563   -2.1393 C   0  0  0  0  0  0  0  0  0  0  0  0
   -1.3393    3.0444   -3.7012 O   0  0  0  0  0  0  0  0  0  0  0  0
   -4.3931    3.1358   -1.7916 C   0  0  0  0  0  0  0  0  0  0  0  0
   -1.8604    4.1600   -0.1839 O   0  0  0  0  0  0  0  0  0  0  0  0
    1.9441    4.9191   -1.2944 C   0  0  0  0  0  0  0  0  0  0  0  0
    1.8698    3.5776   -2.0726 C   0  0  0  0  0  0  0  0  0  0  0  0
    2.0018    2.4725   -1.0888 C   0  0  0  0  0  0  0  0  0  0  0  0
    2.0427    1.1802   -1.7295 N   0  0  0  0  0  0  0  0  0  0  0  0
    3.0433    1.0565   -2.8015 C   0  0  0  0  0  0  0  0  0  0  0  0
    2.9863    2.2677   -3.7420 C   0  0  0  0  0  0  0  0  0  0  0  0
    2.9908    3.5347   -2.9919 O   0  0  0  0  0  0  0  0  0  0  0  0
    0.7361    7.6618   -0.3436 O   0  0  0  0  0  0  0  0  0  0  0  0
    1.4837    7.6815    2.3837 C   0  0  0  0  0  0  0  0  0  0  0  0
    2.8371    7.4944    3.1133 C   0  0  0  0  0  0  0  0  0  0  0  0
    2.9447    6.1289    3.8051 C   0  0  0  0  0  0  0  0  0  0  0  0
    3.2949    3.3416    4.4186 O   0  0  0  0  0  0  0  0  0  0  0  0
    0.4473   -0.8594    0.8667 C   0  0  0  0  0  0  0  0  0  0  0  0
    0.7843   -2.1625    0.4902 C   0  0  0  0  0  0  0  0  0  0  0  0
    1.5657   -2.3667   -0.6979 C   0  0  0  0  0  0  0  0  0  0  0  0
    1.9466   -1.2300   -1.4194 C   0  0  0  0  0  0  0  0  0  0  0  0
    1.6174    0.0622   -1.0053 C   0  0  0  0  0  0  0  0  0  0  0  0
    0.8406    0.2623    0.1467 C   0  0  0  0  0  0  0  0  0  0  0  0
   -4.0973    1.0414   -3.7422 F   0  0  0  0  0  0  0  0  0  0  0  0
  1  2  1  0  0  0  0
  2  3  1  0  0  0  0
  2  5  1  0  0  0  0
  3  4  1  0  0  0  0
  5  6  4  0  0  0  0
  5 10  4  0  0  0  0
  6  7  4  0  0  0  0
  7  8  4  0  0  0  0
  8  9  4  0  0  0  0
  9 10  4  0  0  0  0
 10 11  1  0  0  0  0
 11 12  4  0  0  0  0
 11 15  4  0  0  0  0
 12 13  1  0  0  0  0
 12 68  4  0  0  0  0
 13 14  1  0  0  0  0
 15 16  1  0  0  0  0
 15 67  4  0  0  0  0
 16 17  1  0  0  0  0
 17 18  1  0  0  0  0
 17 19  1  0  0  0  0
 17 20  1  0  0  0  0
 20 21  1  0  0  0  0
 21 22  1  0  0  0  0
 22 23  1  0  0  0  0
 22 66  2  0  0  0  0
 23 24  1  0  0  0  0
 23 65  1  0  0  0  0
 24 25  1  0  0  0  0
 25 26  1  0  0  0  0
 25 63  1  0  0  0  0
 26 27  1  0  0  0  0
 26 62  2  0  0  0  0
 27 28  1  0  0  0  0
 27 55  1  0  0  0  0
 28 29  1  0  0  0  0
 29 30  1  0  0  0  0
 29 54  2  0  0  0  0
 30 31  1  0  0  0  0
 30 34  1  0  0  0  0
 31 32  1  0  0  0  0
 31 33  1  0  0  0  0
 34 35  1  0  0  0  0
 34 53  1  0  0  0  0
 35 36  1  0  0  0  0
 35 52  2  0  0  0  0
 36 37  1  0  0  0  0
 36 51  1  0  0  0  0
 36 73  1  0  0  0  0
 37 38  1  0  0  0  0
 38 39  1  0  0  0  0
 39 40  1  0  0  0  0
 39 50  1  0  0  0  0
 40 41  1  0  0  0  0
 40 49  2  0  0  0  0
 41 42  1  0  0  0  0
 42 43  1  0  0  0  0
 43 44  1  0  0  0  0
 43 47  1  0  0  0  0
 43 48  1  0  0  0  0
 44 45  1  0  0  0  0
 44 46  1  0  0  0  0
 50 51  1  0  0  0  0
 55 56  1  0  0  0  0
 56 57  1  0  0  0  0
 56 61  1  0  0  0  0
 57 58  1  0  0  0  0
 58 59  1  0  0  0  0
 58 71  1  0  0  0  0
 59 60  1  0  0  0  0
 60 61  1  0  0  0  0
 63 64  1  0  0  0  0
 64 65  1  0  0  0  0
 67 68  4  0  0  0  0
 67 72  4  0  0  0  0
 68 69  4  0  0  0  0
 69 70  4  0  0  0  0
 70 71  4  0  0  0  0
 71 72  4  0  0  0  0
M  END
$$$$
