mol_ETKDG2_108
  PyMOL3.1          3D                             0

 73 79  0  0  0  0  0  0  0  0999 V2000
   -2.1776    1.7431   -0.3731 C   0  0  0  0  0  0  0  0  0  0  0  0
   -1.6238    0.7486   -1.3294 C   0  0  0  0  0  0  0  0  0  0  0  0
   -2.4718   -0.3614   -1.5965 O   0  0  0  0  0  0  0  0  0  0  0  0
   -2.5867   -1.3407   -0.5786 C   0  0  0  0  0  0  0  0  0  0  0  0
   -1.2625    1.3543   -2.6340 C   0  0  0  0  0  0  0  0  0  0  0  0
   -2.2302    1.5692   -3.5145 N   0  0  0  0  0  0  0  0  0  0  0  0
   -1.9831    2.1795   -4.6973 C   0  0  0  0  0  0  0  0  0  0  0  0
   -0.6962    2.6157   -5.0462 C   0  0  0  0  0  0  0  0  0  0  0  0
    0.3411    2.4042   -4.1291 C   0  0  0  0  0  0  0  0  0  0  0  0
    0.0494    1.7415   -2.9225 C   0  0  0  0  0  0  0  0  0  0  0  0
    1.1351    1.4797   -2.0044 C   0  0  0  0  0  0  0  0  0  0  0  0
    1.5694    2.3851   -1.0872 N   0  0  0  0  0  0  0  0  0  0  0  0
    1.0349    3.7742   -0.8325 C   0  0  0  0  0  0  0  0  0  0  0  0
    1.8957    4.8295   -1.3939 C   0  0  0  0  0  0  0  0  0  0  0  0
    1.8404    0.2473   -1.8702 C   0  0  0  0  0  0  0  0  0  0  0  0
    1.6676   -1.0840   -2.5722 C   0  0  0  0  0  0  0  0  0  0  0  0
    2.5310   -1.2931   -3.9013 C   0  0  0  0  0  0  0  0  0  0  0  0
    2.1197   -0.3635   -5.0295 C   0  0  0  0  0  0  0  0  0  0  0  0
    2.2302   -2.6777   -4.4186 C   0  0  0  0  0  0  0  0  0  0  0  0
    4.0356   -1.1402   -3.6762 C   0  0  0  0  0  0  0  0  0  0  0  0
    4.7531   -2.4084   -3.2745 O   0  0  0  0  0  0  0  0  0  0  0  0
    6.0441   -2.7940   -3.7462 C   0  0  0  0  0  0  0  0  0  0  0  0
    6.6504   -4.0923   -3.2317 C   0  0  0  0  0  0  0  0  0  0  0  0
    5.6811   -4.7935   -2.4383 N   0  0  0  0  0  0  0  0  0  0  0  0
    6.0426   -6.0173   -1.8903 N   0  0  0  0  0  0  0  0  0  0  0  0
    5.9056   -6.2524   -0.5466 C   0  0  0  0  0  0  0  0  0  0  0  0
    5.3723   -5.1435    0.3224 C   0  0  0  0  0  0  0  0  0  0  0  0
    4.4963   -5.6401    1.3645 N   0  0  0  0  0  0  0  0  0  0  0  0
    3.1510   -5.5233    1.3092 C   0  0  0  0  0  0  0  0  0  0  0  0
    2.4015   -5.9296    2.5383 C   0  0  0  0  0  0  0  0  0  0  0  0
    1.6766   -7.3179    2.4257 C   0  0  0  0  0  0  0  0  0  0  0  0
    1.1471   -7.7968    3.7429 C   0  0  0  0  0  0  0  0  0  0  0  0
    2.5021   -8.3590    1.7252 C   0  0  0  0  0  0  0  0  0  0  0  0
    1.4671   -4.8280    2.8304 N   0  0  0  0  0  0  0  0  0  0  0  0
    1.9538   -3.7210    3.5074 C   0  0  0  0  0  0  0  0  0  0  0  0
    1.1526   -2.4810    3.8407 C   0  0  0  0  0  0  0  0  0  0  0  0
    1.8548   -1.5920    4.8844 C   0  0  0  0  0  0  0  0  0  0  0  0
    1.1297   -0.3072    5.1030 C   0  0  0  0  0  0  0  0  0  0  0  0
    0.7876    0.3555    3.8241 N   0  0  0  0  0  0  0  0  0  0  0  0
    0.9855    1.6815    3.5544 C   0  0  0  0  0  0  0  0  0  0  0  0
    1.9063    2.4909    4.2152 C   0  0  0  0  0  0  0  0  0  0  0  0
    2.5915    3.3221    4.6701 C   0  0  0  0  0  0  0  0  0  0  0  0
    3.4915    4.2143    5.2984 C   0  0  0  0  0  0  0  0  0  0  0  0
    2.8289    5.4578    5.6001 N   0  0  0  0  0  0  0  0  0  0  0  0
    2.5955    6.3966    4.5701 C   0  0  0  0  0  0  0  0  0  0  0  0
    2.0360    5.5772    6.7746 C   0  0  0  0  0  0  0  0  0  0  0  0
    4.6932    4.4615    4.3819 C   0  0  0  0  0  0  0  0  0  0  0  0
    4.0417    3.5837    6.5602 C   0  0  0  0  0  0  0  0  0  0  0  0
    0.3444    2.1925    2.6198 O   0  0  0  0  0  0  0  0  0  0  0  0
    0.1993   -0.4577    2.8031 C   0  0  0  0  0  0  0  0  0  0  0  0
    1.0027   -1.6814    2.5522 C   0  0  0  0  0  0  0  0  0  0  0  0
    3.1529   -3.7413    3.8469 O   0  0  0  0  0  0  0  0  0  0  0  0
    0.1000   -4.8848    2.2814 C   0  0  0  0  0  0  0  0  0  0  0  0
    2.6173   -4.9921    0.3465 O   0  0  0  0  0  0  0  0  0  0  0  0
    6.5628   -4.3234    0.9605 C   0  0  0  0  0  0  0  0  0  0  0  0
    6.1254   -3.0578    1.7579 C   0  0  0  0  0  0  0  0  0  0  0  0
    5.7020   -2.0153    0.7701 C   0  0  0  0  0  0  0  0  0  0  0  0
    5.3969   -0.7445    1.4022 N   0  0  0  0  0  0  0  0  0  0  0  0
    6.4375   -0.2367    2.3094 C   0  0  0  0  0  0  0  0  0  0  0  0
    6.9539   -1.3537    3.2362 C   0  0  0  0  0  0  0  0  0  0  0  0
    7.2861   -2.5764    2.4867 O   0  0  0  0  0  0  0  0  0  0  0  0
    6.2403   -7.3298   -0.0322 O   0  0  0  0  0  0  0  0  0  0  0  0
    6.5040   -7.0332   -2.8502 C   0  0  0  0  0  0  0  0  0  0  0  0
    7.5686   -6.4141   -3.7913 C   0  0  0  0  0  0  0  0  0  0  0  0
    7.1362   -5.0507   -4.3671 C   0  0  0  0  0  0  0  0  0  0  0  0
    6.7094   -2.1353   -4.5626 O   0  0  0  0  0  0  0  0  0  0  0  0
    2.7540    0.5040   -0.8314 C   0  0  0  0  0  0  0  0  0  0  0  0
    2.5537    1.8131   -0.3801 C   0  0  0  0  0  0  0  0  0  0  0  0
    3.3477    2.3069    0.7054 C   0  0  0  0  0  0  0  0  0  0  0  0
    4.2725    1.4236    1.2802 C   0  0  0  0  0  0  0  0  0  0  0  0
    4.4576    0.1139    0.8123 C   0  0  0  0  0  0  0  0  0  0  0  0
    3.6764   -0.3638   -0.2548 C   0  0  0  0  0  0  0  0  0  0  0  0
   -0.0940   -2.8175    4.3533 F   0  0  0  0  0  0  0  0  0  0  0  0
  1  2  1  0  0  0  0
  2  3  1  0  0  0  0
  2  5  1  0  0  0  0
  3  4  1  0  0  0  0
  5  6  4  0  0  0  0
  5 10  4  0  0  0  0
  6  7  4  0  0  0  0
  7  8  4  0  0  0  0
  8  9  4  0  0  0  0
  9 10  4  0  0  0  0
 10 11  1  0  0  0  0
 11 12  4  0  0  0  0
 11 15  4  0  0  0  0
 12 13  1  0  0  0  0
 12 68  4  0  0  0  0
 13 14  1  0  0  0  0
 15 16  1  0  0  0  0
 15 67  4  0  0  0  0
 16 17  1  0  0  0  0
 17 18  1  0  0  0  0
 17 19  1  0  0  0  0
 17 20  1  0  0  0  0
 20 21  1  0  0  0  0
 21 22  1  0  0  0  0
 22 23  1  0  0  0  0
 22 66  2  0  0  0  0
 23 24  1  0  0  0  0
 23 65  1  0  0  0  0
 24 25  1  0  0  0  0
 25 26  1  0  0  0  0
 25 63  1  0  0  0  0
 26 27  1  0  0  0  0
 26 62  2  0  0  0  0
 27 28  1  0  0  0  0
 27 55  1  0  0  0  0
 28 29  1  0  0  0  0
 29 30  1  0  0  0  0
 29 54  2  0  0  0  0
 30 31  1  0  0  0  0
 30 34  1  0  0  0  0
 31 32  1  0  0  0  0
 31 33  1  0  0  0  0
 34 35  1  0  0  0  0
 34 53  1  0  0  0  0
 35 36  1  0  0  0  0
 35 52  2  0  0  0  0
 36 37  1  0  0  0  0
 36 51  1  0  0  0  0
 36 73  1  0  0  0  0
 37 38  1  0  0  0  0
 38 39  1  0  0  0  0
 39 40  1  0  0  0  0
 39 50  1  0  0  0  0
 40 41  1  0  0  0  0
 40 49  2  0  0  0  0
 41 42  1  0  0  0  0
 42 43  1  0  0  0  0
 43 44  1  0  0  0  0
 43 47  1  0  0  0  0
 43 48  1  0  0  0  0
 44 45  1  0  0  0  0
 44 46  1  0  0  0  0
 50 51  1  0  0  0  0
 55 56  1  0  0  0  0
 56 57  1  0  0  0  0
 56 61  1  0  0  0  0
 57 58  1  0  0  0  0
 58 59  1  0  0  0  0
 58 71  1  0  0  0  0
 59 60  1  0  0  0  0
 60 61  1  0  0  0  0
 63 64  1  0  0  0  0
 64 65  1  0  0  0  0
 67 68  4  0  0  0  0
 67 72  4  0  0  0  0
 68 69  4  0  0  0  0
 69 70  4  0  0  0  0
 70 71  4  0  0  0  0
 71 72  4  0  0  0  0
M  END
$$$$
