mol_ETKDG5_263
  PyMOL3.1          3D                             0

 73 79  0  0  0  0  0  0  0  0999 V2000
    4.1280   -5.6989    1.0076 C   0  0  0  0  0  0  0  0  0  0  0  0
    5.2970   -4.8432    0.7374 C   0  0  0  0  0  0  0  0  0  0  0  0
    6.0872   -4.5132    1.8515 O   0  0  0  0  0  0  0  0  0  0  0  0
    5.5568   -3.6027    2.7793 C   0  0  0  0  0  0  0  0  0  0  0  0
    6.1830   -5.4033   -0.2934 C   0  0  0  0  0  0  0  0  0  0  0  0
    7.0861   -6.2937    0.0731 N   0  0  0  0  0  0  0  0  0  0  0  0
    7.8898   -6.8914   -0.8313 C   0  0  0  0  0  0  0  0  0  0  0  0
    7.7976   -6.5986   -2.1959 C   0  0  0  0  0  0  0  0  0  0  0  0
    6.8421   -5.6582   -2.6071 C   0  0  0  0  0  0  0  0  0  0  0  0
    6.0477   -5.0407   -1.6312 C   0  0  0  0  0  0  0  0  0  0  0  0
    5.1046   -4.0272   -2.0377 C   0  0  0  0  0  0  0  0  0  0  0  0
    3.8702   -4.3067   -2.5337 N   0  0  0  0  0  0  0  0  0  0  0  0
    3.2601   -5.6572   -2.7661 C   0  0  0  0  0  0  0  0  0  0  0  0
    3.1933   -6.0131   -4.1857 C   0  0  0  0  0  0  0  0  0  0  0  0
    5.2702   -2.6307   -1.8820 C   0  0  0  0  0  0  0  0  0  0  0  0
    6.3927   -1.8375   -1.2636 C   0  0  0  0  0  0  0  0  0  0  0  0
    7.5953   -1.4908   -2.2281 C   0  0  0  0  0  0  0  0  0  0  0  0
    8.6393   -0.7247   -1.4325 C   0  0  0  0  0  0  0  0  0  0  0  0
    8.3074   -2.6921   -2.7099 C   0  0  0  0  0  0  0  0  0  0  0  0
    7.1346   -0.6626   -3.3893 C   0  0  0  0  0  0  0  0  0  0  0  0
    7.0052    0.8067   -3.1155 O   0  0  0  0  0  0  0  0  0  0  0  0
    7.3512    1.8338   -4.0298 C   0  0  0  0  0  0  0  0  0  0  0  0
    7.1219    3.2753   -3.6300 C   0  0  0  0  0  0  0  0  0  0  0  0
    6.7893    3.3737   -2.2401 N   0  0  0  0  0  0  0  0  0  0  0  0
    6.6066    4.6486   -1.7071 N   0  0  0  0  0  0  0  0  0  0  0  0
    5.4625    4.9813   -1.0441 C   0  0  0  0  0  0  0  0  0  0  0  0
    4.3854    3.9521   -0.9138 C   0  0  0  0  0  0  0  0  0  0  0  0
    3.7041    4.0317    0.3627 N   0  0  0  0  0  0  0  0  0  0  0  0
    3.8233    3.0921    1.3151 C   0  0  0  0  0  0  0  0  0  0  0  0
    2.9143    3.2417    2.4862 C   0  0  0  0  0  0  0  0  0  0  0  0
    3.5546    3.8447    3.7655 C   0  0  0  0  0  0  0  0  0  0  0  0
    4.7340    4.6812    3.5367 C   0  0  0  0  0  0  0  0  0  0  0  0
    2.5210    4.4767    4.6577 C   0  0  0  0  0  0  0  0  0  0  0  0
    2.3255    1.9269    2.7337 N   0  0  0  0  0  0  0  0  0  0  0  0
    1.2097    1.5711    2.0152 C   0  0  0  0  0  0  0  0  0  0  0  0
    0.5138    0.2347    2.0880 C   0  0  0  0  0  0  0  0  0  0  0  0
   -0.9804    0.3450    1.7703 C   0  0  0  0  0  0  0  0  0  0  0  0
   -1.6092   -1.0155    1.6981 C   0  0  0  0  0  0  0  0  0  0  0  0
   -0.8355   -1.8825    0.7879 N   0  0  0  0  0  0  0  0  0  0  0  0
   -1.3634   -2.5268   -0.2973 C   0  0  0  0  0  0  0  0  0  0  0  0
   -2.5975   -2.1812   -0.8219 C   0  0  0  0  0  0  0  0  0  0  0  0
   -3.6131   -2.0037   -1.3441 C   0  0  0  0  0  0  0  0  0  0  0  0
   -4.8492   -1.6414   -1.9340 C   0  0  0  0  0  0  0  0  0  0  0  0
   -5.1744   -2.5477   -2.9913 N   0  0  0  0  0  0  0  0  0  0  0  0
   -4.4001   -2.5277   -4.1662 C   0  0  0  0  0  0  0  0  0  0  0  0
   -5.9141   -3.7240   -2.7261 C   0  0  0  0  0  0  0  0  0  0  0  0
   -4.7629   -0.2216   -2.4726 C   0  0  0  0  0  0  0  0  0  0  0  0
   -5.9301   -1.6359   -0.8821 C   0  0  0  0  0  0  0  0  0  0  0  0
   -0.7062   -3.4058   -0.8717 O   0  0  0  0  0  0  0  0  0  0  0  0
    0.5635   -2.0069    1.0566 C   0  0  0  0  0  0  0  0  0  0  0  0
    1.1975   -0.6586    1.0660 C   0  0  0  0  0  0  0  0  0  0  0  0
    0.7510    2.4138    1.2117 O   0  0  0  0  0  0  0  0  0  0  0  0
    3.0095    1.0145    3.6554 C   0  0  0  0  0  0  0  0  0  0  0  0
    4.5353    2.1191    1.1437 O   0  0  0  0  0  0  0  0  0  0  0  0
    3.3247    4.1719   -2.0630 C   0  0  0  0  0  0  0  0  0  0  0  0
    2.2373    3.0760   -2.1190 C   0  0  0  0  0  0  0  0  0  0  0  0
    2.8522    1.8864   -2.7636 C   0  0  0  0  0  0  0  0  0  0  0  0
    1.9055    0.8286   -2.9511 N   0  0  0  0  0  0  0  0  0  0  0  0
    0.6672    1.2198   -3.6356 C   0  0  0  0  0  0  0  0  0  0  0  0
    0.1136    2.5339   -3.0628 C   0  0  0  0  0  0  0  0  0  0  0  0
    1.1528    3.5637   -2.9476 O   0  0  0  0  0  0  0  0  0  0  0  0
    5.2703    6.1240   -0.5911 O   0  0  0  0  0  0  0  0  0  0  0  0
    7.7288    5.5711   -1.8542 C   0  0  0  0  0  0  0  0  0  0  0  0
    8.1842    5.5787   -3.3282 C   0  0  0  0  0  0  0  0  0  0  0  0
    8.3690    4.1691   -3.8923 C   0  0  0  0  0  0  0  0  0  0  0  0
    7.8388    1.6399   -5.1643 O   0  0  0  0  0  0  0  0  0  0  0  0
    4.0618   -2.0942   -2.3692 C   0  0  0  0  0  0  0  0  0  0  0  0
    3.2342   -3.1476   -2.7486 C   0  0  0  0  0  0  0  0  0  0  0  0
    1.9105   -2.8705   -3.2315 C   0  0  0  0  0  0  0  0  0  0  0  0
    1.5115   -1.5344   -3.2878 C   0  0  0  0  0  0  0  0  0  0  0  0
    2.3499   -0.4953   -2.8975 C   0  0  0  0  0  0  0  0  0  0  0  0
    3.6504   -0.7664   -2.4288 C   0  0  0  0  0  0  0  0  0  0  0  0
    0.6025   -0.3246    3.3377 F   0  0  0  0  0  0  0  0  0  0  0  0
  1  2  1  0  0  0  0
  2  3  1  0  0  0  0
  2  5  1  0  0  0  0
  3  4  1  0  0  0  0
  5  6  4  0  0  0  0
  5 10  4  0  0  0  0
  6  7  4  0  0  0  0
  7  8  4  0  0  0  0
  8  9  4  0  0  0  0
  9 10  4  0  0  0  0
 10 11  1  0  0  0  0
 11 12  4  0  0  0  0
 11 15  4  0  0  0  0
 12 13  1  0  0  0  0
 12 68  4  0  0  0  0
 13 14  1  0  0  0  0
 15 16  1  0  0  0  0
 15 67  4  0  0  0  0
 16 17  1  0  0  0  0
 17 18  1  0  0  0  0
 17 19  1  0  0  0  0
 17 20  1  0  0  0  0
 20 21  1  0  0  0  0
 21 22  1  0  0  0  0
 22 23  1  0  0  0  0
 22 66  2  0  0  0  0
 23 24  1  0  0  0  0
 23 65  1  0  0  0  0
 24 25  1  0  0  0  0
 25 26  1  0  0  0  0
 25 63  1  0  0  0  0
 26 27  1  0  0  0  0
 26 62  2  0  0  0  0
 27 28  1  0  0  0  0
 27 55  1  0  0  0  0
 28 29  1  0  0  0  0
 29 30  1  0  0  0  0
 29 54  2  0  0  0  0
 30 31  1  0  0  0  0
 30 34  1  0  0  0  0
 31 32  1  0  0  0  0
 31 33  1  0  0  0  0
 34 35  1  0  0  0  0
 34 53  1  0  0  0  0
 35 36  1  0  0  0  0
 35 52  2  0  0  0  0
 36 37  1  0  0  0  0
 36 51  1  0  0  0  0
 36 73  1  0  0  0  0
 37 38  1  0  0  0  0
 38 39  1  0  0  0  0
 39 40  1  0  0  0  0
 39 50  1  0  0  0  0
 40 41  1  0  0  0  0
 40 49  2  0  0  0  0
 41 42  1  0  0  0  0
 42 43  1  0  0  0  0
 43 44  1  0  0  0  0
 43 47  1  0  0  0  0
 43 48  1  0  0  0  0
 44 45  1  0  0  0  0
 44 46  1  0  0  0  0
 50 51  1  0  0  0  0
 55 56  1  0  0  0  0
 56 57  1  0  0  0  0
 56 61  1  0  0  0  0
 57 58  1  0  0  0  0
 58 59  1  0  0  0  0
 58 71  1  0  0  0  0
 59 60  1  0  0  0  0
 60 61  1  0  0  0  0
 63 64  1  0  0  0  0
 64 65  1  0  0  0  0
 67 68  4  0  0  0  0
 67 72  4  0  0  0  0
 68 69  4  0  0  0  0
 69 70  4  0  0  0  0
 70 71  4  0  0  0  0
 71 72  4  0  0  0  0
M  END
$$$$
