mol_ETKDG4_206
  PyMOL3.1          3D                             0

 73 79  0  0  0  0  0  0  0  0999 V2000
    0.8001    6.1387    2.0559 C   0  0  0  0  0  0  0  0  0  0  0  0
    0.9423    4.7584    2.5569 C   0  0  0  0  0  0  0  0  0  0  0  0
    0.1404    4.4105    3.6639 O   0  0  0  0  0  0  0  0  0  0  0  0
   -1.2304    4.2203    3.4275 C   0  0  0  0  0  0  0  0  0  0  0  0
    2.3290    4.4047    2.9016 C   0  0  0  0  0  0  0  0  0  0  0  0
    2.8080    4.8044    4.0689 N   0  0  0  0  0  0  0  0  0  0  0  0
    4.0851    4.5500    4.4249 C   0  0  0  0  0  0  0  0  0  0  0  0
    4.9621    3.8715    3.5706 C   0  0  0  0  0  0  0  0  0  0  0  0
    4.4781    3.4614    2.3250 C   0  0  0  0  0  0  0  0  0  0  0  0
    3.1307    3.7170    2.0088 C   0  0  0  0  0  0  0  0  0  0  0  0
    2.6254    3.2439    0.7429 C   0  0  0  0  0  0  0  0  0  0  0  0
    2.7691    3.9242   -0.4143 N   0  0  0  0  0  0  0  0  0  0  0  0
    3.4106    5.2697   -0.6154 C   0  0  0  0  0  0  0  0  0  0  0  0
    4.7403    5.1764   -1.2309 C   0  0  0  0  0  0  0  0  0  0  0  0
    1.8563    2.0758    0.5433 C   0  0  0  0  0  0  0  0  0  0  0  0
    1.2803    1.1013    1.5292 C   0  0  0  0  0  0  0  0  0  0  0  0
    2.2060   -0.0981    1.9456 C   0  0  0  0  0  0  0  0  0  0  0  0
    3.3702    0.3173    2.8297 C   0  0  0  0  0  0  0  0  0  0  0  0
    1.4003   -1.0186    2.8186 C   0  0  0  0  0  0  0  0  0  0  0  0
    2.7325   -0.7978    0.7251 C   0  0  0  0  0  0  0  0  0  0  0  0
    1.8307   -1.9004    0.2324 O   0  0  0  0  0  0  0  0  0  0  0  0
    2.2497   -3.2261   -0.0193 C   0  0  0  0  0  0  0  0  0  0  0  0
    1.2327   -4.2329   -0.5052 C   0  0  0  0  0  0  0  0  0  0  0  0
   -0.0983   -3.7785   -0.2323 N   0  0  0  0  0  0  0  0  0  0  0  0
   -1.1504   -4.6328   -0.5458 N   0  0  0  0  0  0  0  0  0  0  0  0
   -2.1928   -4.2170   -1.3119 C   0  0  0  0  0  0  0  0  0  0  0  0
   -2.1894   -2.8165   -1.8270 C   0  0  0  0  0  0  0  0  0  0  0  0
   -3.5039   -2.2215   -1.8172 N   0  0  0  0  0  0  0  0  0  0  0  0
   -3.8710   -1.2896   -0.9255 C   0  0  0  0  0  0  0  0  0  0  0  0
   -5.1760   -0.6334   -1.1761 C   0  0  0  0  0  0  0  0  0  0  0  0
   -6.3777   -1.1475   -0.3668 C   0  0  0  0  0  0  0  0  0  0  0  0
   -6.1475   -2.2429    0.5713 C   0  0  0  0  0  0  0  0  0  0  0  0
   -7.6370   -1.2323   -1.1836 C   0  0  0  0  0  0  0  0  0  0  0  0
   -4.9800    0.8027   -1.0302 N   0  0  0  0  0  0  0  0  0  0  0  0
   -4.4503    1.4938   -2.0903 C   0  0  0  0  0  0  0  0  0  0  0  0
   -4.1319    2.9625   -2.0854 C   0  0  0  0  0  0  0  0  0  0  0  0
   -3.8855    3.5077   -3.4962 C   0  0  0  0  0  0  0  0  0  0  0  0
   -3.4294    4.9197   -3.4555 C   0  0  0  0  0  0  0  0  0  0  0  0
   -2.2999    5.0732   -2.5226 N   0  0  0  0  0  0  0  0  0  0  0  0
   -1.1153    5.6541   -2.8549 C   0  0  0  0  0  0  0  0  0  0  0  0
   -0.7291    5.8586   -4.1597 C   0  0  0  0  0  0  0  0  0  0  0  0
   -0.2918    6.1174   -5.1895 C   0  0  0  0  0  0  0  0  0  0  0  0
    0.1137    6.3802   -6.5110 C   0  0  0  0  0  0  0  0  0  0  0  0
    0.9238    7.5623   -6.5490 N   0  0  0  0  0  0  0  0  0  0  0  0
    0.3024    8.8194   -6.3752 C   0  0  0  0  0  0  0  0  0  0  0  0
    2.3009    7.4844   -6.2464 C   0  0  0  0  0  0  0  0  0  0  0  0
    0.8672    5.1899   -7.0644 C   0  0  0  0  0  0  0  0  0  0  0  0
   -1.1152    6.5555   -7.3856 C   0  0  0  0  0  0  0  0  0  0  0  0
   -0.3218    5.9692   -1.9539 O   0  0  0  0  0  0  0  0  0  0  0  0
   -2.4731    4.5526   -1.2057 C   0  0  0  0  0  0  0  0  0  0  0  0
   -2.8623    3.1234   -1.2685 C   0  0  0  0  0  0  0  0  0  0  0  0
   -4.1910    0.8492   -3.1233 O   0  0  0  0  0  0  0  0  0  0  0  0
   -5.2540    1.4258    0.2784 C   0  0  0  0  0  0  0  0  0  0  0  0
   -3.0992   -0.9211   -0.0544 O   0  0  0  0  0  0  0  0  0  0  0  0
   -1.6127   -2.7960   -3.2938 C   0  0  0  0  0  0  0  0  0  0  0  0
   -1.4337   -1.3777   -3.8819 C   0  0  0  0  0  0  0  0  0  0  0  0
   -0.2400   -0.7878   -3.2356 C   0  0  0  0  0  0  0  0  0  0  0  0
    0.0741    0.5071   -3.7784 N   0  0  0  0  0  0  0  0  0  0  0  0
    0.2014    0.5415   -5.2435 C   0  0  0  0  0  0  0  0  0  0  0  0
   -0.9828   -0.1834   -5.9022 C   0  0  0  0  0  0  0  0  0  0  0  0
   -1.2021   -1.5030   -5.3049 O   0  0  0  0  0  0  0  0  0  0  0  0
   -3.1212   -4.9821   -1.6279 O   0  0  0  0  0  0  0  0  0  0  0  0
   -1.0982   -5.9668    0.0549 C   0  0  0  0  0  0  0  0  0  0  0  0
    0.2961   -6.5774   -0.1959 C   0  0  0  0  0  0  0  0  0  0  0  0
    1.4251   -5.6180    0.1752 C   0  0  0  0  0  0  0  0  0  0  0  0
    3.4322   -3.6404    0.1200 O   0  0  0  0  0  0  0  0  0  0  0  0
    1.6184    2.0674   -0.8407 C   0  0  0  0  0  0  0  0  0  0  0  0
    2.1799    3.2167   -1.3819 C   0  0  0  0  0  0  0  0  0  0  0  0
    2.0323    3.4868   -2.7779 C   0  0  0  0  0  0  0  0  0  0  0  0
    1.3074    2.5699   -3.5271 C   0  0  0  0  0  0  0  0  0  0  0  0
    0.7659    1.4142   -2.9760 C   0  0  0  0  0  0  0  0  0  0  0  0
    0.9003    1.1530   -1.6013 C   0  0  0  0  0  0  0  0  0  0  0  0
   -5.1695    3.6984   -1.5377 F   0  0  0  0  0  0  0  0  0  0  0  0
  1  2  1  0  0  0  0
  2  3  1  0  0  0  0
  2  5  1  0  0  0  0
  3  4  1  0  0  0  0
  5  6  4  0  0  0  0
  5 10  4  0  0  0  0
  6  7  4  0  0  0  0
  7  8  4  0  0  0  0
  8  9  4  0  0  0  0
  9 10  4  0  0  0  0
 10 11  1  0  0  0  0
 11 12  4  0  0  0  0
 11 15  4  0  0  0  0
 12 13  1  0  0  0  0
 12 68  4  0  0  0  0
 13 14  1  0  0  0  0
 15 16  1  0  0  0  0
 15 67  4  0  0  0  0
 16 17  1  0  0  0  0
 17 18  1  0  0  0  0
 17 19  1  0  0  0  0
 17 20  1  0  0  0  0
 20 21  1  0  0  0  0
 21 22  1  0  0  0  0
 22 23  1  0  0  0  0
 22 66  2  0  0  0  0
 23 24  1  0  0  0  0
 23 65  1  0  0  0  0
 24 25  1  0  0  0  0
 25 26  1  0  0  0  0
 25 63  1  0  0  0  0
 26 27  1  0  0  0  0
 26 62  2  0  0  0  0
 27 28  1  0  0  0  0
 27 55  1  0  0  0  0
 28 29  1  0  0  0  0
 29 30  1  0  0  0  0
 29 54  2  0  0  0  0
 30 31  1  0  0  0  0
 30 34  1  0  0  0  0
 31 32  1  0  0  0  0
 31 33  1  0  0  0  0
 34 35  1  0  0  0  0
 34 53  1  0  0  0  0
 35 36  1  0  0  0  0
 35 52  2  0  0  0  0
 36 37  1  0  0  0  0
 36 51  1  0  0  0  0
 36 73  1  0  0  0  0
 37 38  1  0  0  0  0
 38 39  1  0  0  0  0
 39 40  1  0  0  0  0
 39 50  1  0  0  0  0
 40 41  1  0  0  0  0
 40 49  2  0  0  0  0
 41 42  1  0  0  0  0
 42 43  1  0  0  0  0
 43 44  1  0  0  0  0
 43 47  1  0  0  0  0
 43 48  1  0  0  0  0
 44 45  1  0  0  0  0
 44 46  1  0  0  0  0
 50 51  1  0  0  0  0
 55 56  1  0  0  0  0
 56 57  1  0  0  0  0
 56 61  1  0  0  0  0
 57 58  1  0  0  0  0
 58 59  1  0  0  0  0
 58 71  1  0  0  0  0
 59 60  1  0  0  0  0
 60 61  1  0  0  0  0
 63 64  1  0  0  0  0
 64 65  1  0  0  0  0
 67 68  4  0  0  0  0
 67 72  4  0  0  0  0
 68 69  4  0  0  0  0
 69 70  4  0  0  0  0
 70 71  4  0  0  0  0
 71 72  4  0  0  0  0
M  END
$$$$
