mol_ETKDG2_150
  PyMOL3.1          3D                             0

 73 79  0  0  0  0  0  0  0  0999 V2000
   -2.9065    0.7676    5.6063 C   0  0  0  0  0  0  0  0  0  0  0  0
   -2.2254    1.5042    4.5231 C   0  0  0  0  0  0  0  0  0  0  0  0
   -3.0357    2.0414    3.5211 O   0  0  0  0  0  0  0  0  0  0  0  0
   -3.6603    1.1519    2.6250 C   0  0  0  0  0  0  0  0  0  0  0  0
   -1.3677    2.5919    5.0176 C   0  0  0  0  0  0  0  0  0  0  0  0
   -1.9528    3.6245    5.6088 N   0  0  0  0  0  0  0  0  0  0  0  0
   -1.2268    4.6403    6.1236 C   0  0  0  0  0  0  0  0  0  0  0  0
    0.1713    4.6430    6.0706 C   0  0  0  0  0  0  0  0  0  0  0  0
    0.8081    3.5590    5.4595 C   0  0  0  0  0  0  0  0  0  0  0  0
    0.0127    2.5425    4.9051 C   0  0  0  0  0  0  0  0  0  0  0  0
    0.6727    1.4593    4.2269 C   0  0  0  0  0  0  0  0  0  0  0  0
    1.1993    0.3952    4.8784 N   0  0  0  0  0  0  0  0  0  0  0  0
    1.1621    0.1094    6.3538 C   0  0  0  0  0  0  0  0  0  0  0  0
    2.4355    0.3464    7.0307 C   0  0  0  0  0  0  0  0  0  0  0  0
    0.8068    1.3121    2.8146 C   0  0  0  0  0  0  0  0  0  0  0  0
    0.2682    2.1168    1.6626 C   0  0  0  0  0  0  0  0  0  0  0  0
    1.0941    3.3878    1.1941 C   0  0  0  0  0  0  0  0  0  0  0  0
    1.0991    4.4931    2.2199 C   0  0  0  0  0  0  0  0  0  0  0  0
    0.3729    3.9760    0.0037 C   0  0  0  0  0  0  0  0  0  0  0  0
    2.5314    3.0672    0.8135 C   0  0  0  0  0  0  0  0  0  0  0  0
    2.7063    2.5820   -0.6057 O   0  0  0  0  0  0  0  0  0  0  0  0
    3.8311    2.8625   -1.4266 C   0  0  0  0  0  0  0  0  0  0  0  0
    3.8629    2.2940   -2.8393 C   0  0  0  0  0  0  0  0  0  0  0  0
    2.5726    1.7630   -3.1725 N   0  0  0  0  0  0  0  0  0  0  0  0
    2.3932    1.2421   -4.4494 N   0  0  0  0  0  0  0  0  0  0  0  0
    1.9373   -0.0346   -4.6409 C   0  0  0  0  0  0  0  0  0  0  0  0
    1.6730   -0.8720   -3.4322 C   0  0  0  0  0  0  0  0  0  0  0  0
    0.4777   -1.6832   -3.5442 N   0  0  0  0  0  0  0  0  0  0  0  0
   -0.6661   -1.4028   -2.8779 C   0  0  0  0  0  0  0  0  0  0  0  0
   -1.7279   -2.4465   -2.9411 C   0  0  0  0  0  0  0  0  0  0  0  0
   -2.8467   -2.1884   -3.9883 C   0  0  0  0  0  0  0  0  0  0  0  0
   -3.6677   -3.4051   -4.2575 C   0  0  0  0  0  0  0  0  0  0  0  0
   -2.3684   -1.5202   -5.2340 C   0  0  0  0  0  0  0  0  0  0  0  0
   -2.2549   -2.5960   -1.5729 N   0  0  0  0  0  0  0  0  0  0  0  0
   -1.5773   -3.4129   -0.6885 C   0  0  0  0  0  0  0  0  0  0  0  0
   -1.9455   -3.6168    0.7681 C   0  0  0  0  0  0  0  0  0  0  0  0
   -1.2873   -4.8651    1.3806 C   0  0  0  0  0  0  0  0  0  0  0  0
   -1.5700   -4.9713    2.8389 C   0  0  0  0  0  0  0  0  0  0  0  0
   -1.2923   -3.7096    3.5445 N   0  0  0  0  0  0  0  0  0  0  0  0
   -0.5840   -3.6452    4.7122 C   0  0  0  0  0  0  0  0  0  0  0  0
    0.2220   -4.6873    5.1239 C   0  0  0  0  0  0  0  0  0  0  0  0
    0.8858   -5.4984    5.5958 C   0  0  0  0  0  0  0  0  0  0  0  0
    1.6635   -6.6164    5.9872 C   0  0  0  0  0  0  0  0  0  0  0  0
    1.8493   -6.6270    7.4040 N   0  0  0  0  0  0  0  0  0  0  0  0
    2.8481   -5.8356    8.0030 C   0  0  0  0  0  0  0  0  0  0  0  0
    0.8651   -7.1804    8.2597 C   0  0  0  0  0  0  0  0  0  0  0  0
    3.0050   -6.5791    5.2614 C   0  0  0  0  0  0  0  0  0  0  0  0
    0.9738   -7.8926    5.5457 C   0  0  0  0  0  0  0  0  0  0  0  0
   -0.6331   -2.6234    5.4057 O   0  0  0  0  0  0  0  0  0  0  0  0
   -1.8008   -2.5030    2.9655 C   0  0  0  0  0  0  0  0  0  0  0  0
   -1.4500   -2.3950    1.5290 C   0  0  0  0  0  0  0  0  0  0  0  0
   -0.5648   -3.9962   -1.1167 O   0  0  0  0  0  0  0  0  0  0  0  0
   -3.4107   -1.7779   -1.1681 C   0  0  0  0  0  0  0  0  0  0  0  0
   -0.7495   -0.4088   -2.1788 O   0  0  0  0  0  0  0  0  0  0  0  0
    2.9066   -1.8229   -3.1700 C   0  0  0  0  0  0  0  0  0  0  0  0
    2.7785   -2.6774   -1.8883 C   0  0  0  0  0  0  0  0  0  0  0  0
    2.9590   -1.7643   -0.7283 C   0  0  0  0  0  0  0  0  0  0  0  0
    2.9277   -2.4840    0.5172 N   0  0  0  0  0  0  0  0  0  0  0  0
    3.8826   -3.6090    0.5912 C   0  0  0  0  0  0  0  0  0  0  0  0
    3.7799   -4.4818   -0.6722 C   0  0  0  0  0  0  0  0  0  0  0  0
    3.8368   -3.6704   -1.8951 O   0  0  0  0  0  0  0  0  0  0  0  0
    1.7915   -0.5242   -5.7711 O   0  0  0  0  0  0  0  0  0  0  0  0
    2.6695    2.1645   -5.5540 C   0  0  0  0  0  0  0  0  0  0  0  0
    4.0637    2.8002   -5.3377 C   0  0  0  0  0  0  0  0  0  0  0  0
    4.2419    3.3582   -3.9142 C   0  0  0  0  0  0  0  0  0  0  0  0
    4.8052    3.5487   -1.0634 O   0  0  0  0  0  0  0  0  0  0  0  0
    1.5023    0.1030    2.6871 C   0  0  0  0  0  0  0  0  0  0  0  0
    1.7188   -0.4253    3.9603 C   0  0  0  0  0  0  0  0  0  0  0  0
    2.3930   -1.6790    4.1001 C   0  0  0  0  0  0  0  0  0  0  0  0
    2.7599   -2.3352    2.9299 C   0  0  0  0  0  0  0  0  0  0  0  0
    2.5321   -1.7933    1.6659 C   0  0  0  0  0  0  0  0  0  0  0  0
    1.8896   -0.5532    1.5314 C   0  0  0  0  0  0  0  0  0  0  0  0
   -3.3031   -3.7670    0.9214 F   0  0  0  0  0  0  0  0  0  0  0  0
  1  2  1  0  0  0  0
  2  3  1  0  0  0  0
  2  5  1  0  0  0  0
  3  4  1  0  0  0  0
  5  6  4  0  0  0  0
  5 10  4  0  0  0  0
  6  7  4  0  0  0  0
  7  8  4  0  0  0  0
  8  9  4  0  0  0  0
  9 10  4  0  0  0  0
 10 11  1  0  0  0  0
 11 12  4  0  0  0  0
 11 15  4  0  0  0  0
 12 13  1  0  0  0  0
 12 68  4  0  0  0  0
 13 14  1  0  0  0  0
 15 16  1  0  0  0  0
 15 67  4  0  0  0  0
 16 17  1  0  0  0  0
 17 18  1  0  0  0  0
 17 19  1  0  0  0  0
 17 20  1  0  0  0  0
 20 21  1  0  0  0  0
 21 22  1  0  0  0  0
 22 23  1  0  0  0  0
 22 66  2  0  0  0  0
 23 24  1  0  0  0  0
 23 65  1  0  0  0  0
 24 25  1  0  0  0  0
 25 26  1  0  0  0  0
 25 63  1  0  0  0  0
 26 27  1  0  0  0  0
 26 62  2  0  0  0  0
 27 28  1  0  0  0  0
 27 55  1  0  0  0  0
 28 29  1  0  0  0  0
 29 30  1  0  0  0  0
 29 54  2  0  0  0  0
 30 31  1  0  0  0  0
 30 34  1  0  0  0  0
 31 32  1  0  0  0  0
 31 33  1  0  0  0  0
 34 35  1  0  0  0  0
 34 53  1  0  0  0  0
 35 36  1  0  0  0  0
 35 52  2  0  0  0  0
 36 37  1  0  0  0  0
 36 51  1  0  0  0  0
 36 73  1  0  0  0  0
 37 38  1  0  0  0  0
 38 39  1  0  0  0  0
 39 40  1  0  0  0  0
 39 50  1  0  0  0  0
 40 41  1  0  0  0  0
 40 49  2  0  0  0  0
 41 42  1  0  0  0  0
 42 43  1  0  0  0  0
 43 44  1  0  0  0  0
 43 47  1  0  0  0  0
 43 48  1  0  0  0  0
 44 45  1  0  0  0  0
 44 46  1  0  0  0  0
 50 51  1  0  0  0  0
 55 56  1  0  0  0  0
 56 57  1  0  0  0  0
 56 61  1  0  0  0  0
 57 58  1  0  0  0  0
 58 59  1  0  0  0  0
 58 71  1  0  0  0  0
 59 60  1  0  0  0  0
 60 61  1  0  0  0  0
 63 64  1  0  0  0  0
 64 65  1  0  0  0  0
 67 68  4  0  0  0  0
 67 72  4  0  0  0  0
 68 69  4  0  0  0  0
 69 70  4  0  0  0  0
 70 71  4  0  0  0  0
 71 72  4  0  0  0  0
M  END
$$$$
