mol_ETKDG0_335
  PyMOL3.1          3D                             0

 73 79  0  0  0  0  0  0  0  0999 V2000
   -4.1407    2.1408   -5.3527 C   0  0  0  0  0  0  0  0  0  0  0  0
   -2.9343    2.1932   -4.5004 C   0  0  0  0  0  0  0  0  0  0  0  0
   -2.9848    3.1280   -3.4478 O   0  0  0  0  0  0  0  0  0  0  0  0
   -3.7576    2.7932   -2.3307 C   0  0  0  0  0  0  0  0  0  0  0  0
   -1.7171    2.5062   -5.2645 C   0  0  0  0  0  0  0  0  0  0  0  0
   -1.5810    3.7384   -5.7274 N   0  0  0  0  0  0  0  0  0  0  0  0
   -0.5151    4.0903   -6.4698 C   0  0  0  0  0  0  0  0  0  0  0  0
    0.4849    3.1736   -6.7905 C   0  0  0  0  0  0  0  0  0  0  0  0
    0.3531    1.8667   -6.3202 C   0  0  0  0  0  0  0  0  0  0  0  0
   -0.7569    1.5471   -5.5296 C   0  0  0  0  0  0  0  0  0  0  0  0
   -0.8354    0.2050   -5.0226 C   0  0  0  0  0  0  0  0  0  0  0  0
   -1.3304   -0.8326   -5.7353 N   0  0  0  0  0  0  0  0  0  0  0  0
   -1.9627   -0.7934   -7.0926 C   0  0  0  0  0  0  0  0  0  0  0  0
   -1.0967   -1.3207   -8.1432 C   0  0  0  0  0  0  0  0  0  0  0  0
   -0.4588   -0.2245   -3.7282 C   0  0  0  0  0  0  0  0  0  0  0  0
   -0.0317    0.5349   -2.5200 C   0  0  0  0  0  0  0  0  0  0  0  0
    1.4926    0.8996   -2.3958 C   0  0  0  0  0  0  0  0  0  0  0  0
    1.9188    1.9901   -3.3488 C   0  0  0  0  0  0  0  0  0  0  0  0
    1.6810    1.5033   -1.0372 C   0  0  0  0  0  0  0  0  0  0  0  0
    2.3956   -0.3113   -2.5653 C   0  0  0  0  0  0  0  0  0  0  0  0
    2.6796   -1.0218   -1.2773 O   0  0  0  0  0  0  0  0  0  0  0  0
    3.9595   -1.4123   -0.8210 C   0  0  0  0  0  0  0  0  0  0  0  0
    4.0603   -2.0533    0.5519 C   0  0  0  0  0  0  0  0  0  0  0  0
    2.8613   -1.7905    1.2767 N   0  0  0  0  0  0  0  0  0  0  0  0
    2.7713   -2.2150    2.5883 N   0  0  0  0  0  0  0  0  0  0  0  0
    1.7131   -2.9516    3.0090 C   0  0  0  0  0  0  0  0  0  0  0  0
    0.6441   -3.2898    2.0236 C   0  0  0  0  0  0  0  0  0  0  0  0
   -0.6625   -3.1458    2.6074 N   0  0  0  0  0  0  0  0  0  0  0  0
   -1.4671   -2.1189    2.3211 C   0  0  0  0  0  0  0  0  0  0  0  0
   -2.8215   -2.1602    2.9319 C   0  0  0  0  0  0  0  0  0  0  0  0
   -2.9521   -1.3854    4.2515 C   0  0  0  0  0  0  0  0  0  0  0  0
   -1.8203   -0.5816    4.6885 C   0  0  0  0  0  0  0  0  0  0  0  0
   -3.7004   -2.1250    5.3074 C   0  0  0  0  0  0  0  0  0  0  0  0
   -3.7524   -1.6697    1.9187 N   0  0  0  0  0  0  0  0  0  0  0  0
   -4.1671   -2.5230    0.9295 C   0  0  0  0  0  0  0  0  0  0  0  0
   -5.0568   -2.1142   -0.2036 C   0  0  0  0  0  0  0  0  0  0  0  0
   -5.9172   -3.2198   -0.7918 C   0  0  0  0  0  0  0  0  0  0  0  0
   -6.6946   -2.6791   -1.9355 C   0  0  0  0  0  0  0  0  0  0  0  0
   -5.8400   -1.9523   -2.8960 N   0  0  0  0  0  0  0  0  0  0  0  0
   -5.9447   -2.0581   -4.2386 C   0  0  0  0  0  0  0  0  0  0  0  0
   -6.8854   -2.8628   -4.8056 C   0  0  0  0  0  0  0  0  0  0  0  0
   -7.6200   -3.4878   -5.4064 C   0  0  0  0  0  0  0  0  0  0  0  0
   -8.5157   -4.3950   -5.9891 C   0  0  0  0  0  0  0  0  0  0  0  0
   -7.7735   -5.3686   -6.6948 N   0  0  0  0  0  0  0  0  0  0  0  0
   -6.9233   -4.9542   -7.7284 C   0  0  0  0  0  0  0  0  0  0  0  0
   -7.7684   -6.7200   -6.3500 C   0  0  0  0  0  0  0  0  0  0  0  0
   -9.4705   -3.6818   -6.9391 C   0  0  0  0  0  0  0  0  0  0  0  0
   -9.3666   -5.0115   -4.9048 C   0  0  0  0  0  0  0  0  0  0  0  0
   -5.1720   -1.4133   -4.9818 O   0  0  0  0  0  0  0  0  0  0  0  0
   -4.8740   -1.0550   -2.3879 C   0  0  0  0  0  0  0  0  0  0  0  0
   -4.1290   -1.5763   -1.2757 C   0  0  0  0  0  0  0  0  0  0  0  0
   -3.7411   -3.6960    0.9485 O   0  0  0  0  0  0  0  0  0  0  0  0
   -4.1104   -0.2487    1.9320 C   0  0  0  0  0  0  0  0  0  0  0  0
   -1.1275   -1.2760    1.5021 O   0  0  0  0  0  0  0  0  0  0  0  0
    0.8318   -4.7492    1.4629 C   0  0  0  0  0  0  0  0  0  0  0  0
   -0.1966   -5.1273    0.3657 C   0  0  0  0  0  0  0  0  0  0  0  0
    0.2241   -4.4682   -0.8842 C   0  0  0  0  0  0  0  0  0  0  0  0
   -0.6392   -4.8063   -1.9840 N   0  0  0  0  0  0  0  0  0  0  0  0
   -0.8435   -6.2402   -2.1963 C   0  0  0  0  0  0  0  0  0  0  0  0
   -1.1302   -6.9556   -0.8698 C   0  0  0  0  0  0  0  0  0  0  0  0
   -0.1896   -6.5628    0.1844 O   0  0  0  0  0  0  0  0  0  0  0  0
    1.6252   -3.3641    4.1725 O   0  0  0  0  0  0  0  0  0  0  0  0
    3.8371   -1.7709    3.4833 C   0  0  0  0  0  0  0  0  0  0  0  0
    5.2044   -2.0159    2.8237 C   0  0  0  0  0  0  0  0  0  0  0  0
    5.2611   -1.5105    1.3792 C   0  0  0  0  0  0  0  0  0  0  0  0
    5.0076   -1.2829   -1.4796 O   0  0  0  0  0  0  0  0  0  0  0  0
   -0.6864   -1.6065   -3.7566 C   0  0  0  0  0  0  0  0  0  0  0  0
   -1.2232   -1.9370   -4.9936 C   0  0  0  0  0  0  0  0  0  0  0  0
   -1.5853   -3.2970   -5.2521 C   0  0  0  0  0  0  0  0  0  0  0  0
   -1.3786   -4.2269   -4.2308 C   0  0  0  0  0  0  0  0  0  0  0  0
   -0.8301   -3.8647   -2.9967 C   0  0  0  0  0  0  0  0  0  0  0  0
   -0.4828   -2.5344   -2.7507 C   0  0  0  0  0  0  0  0  0  0  0  0
   -5.9494   -1.1640    0.1840 F   0  0  0  0  0  0  0  0  0  0  0  0
  1  2  1  0  0  0  0
  2  3  1  0  0  0  0
  2  5  1  0  0  0  0
  3  4  1  0  0  0  0
  5  6  4  0  0  0  0
  5 10  4  0  0  0  0
  6  7  4  0  0  0  0
  7  8  4  0  0  0  0
  8  9  4  0  0  0  0
  9 10  4  0  0  0  0
 10 11  1  0  0  0  0
 11 12  4  0  0  0  0
 11 15  4  0  0  0  0
 12 13  1  0  0  0  0
 12 68  4  0  0  0  0
 13 14  1  0  0  0  0
 15 16  1  0  0  0  0
 15 67  4  0  0  0  0
 16 17  1  0  0  0  0
 17 18  1  0  0  0  0
 17 19  1  0  0  0  0
 17 20  1  0  0  0  0
 20 21  1  0  0  0  0
 21 22  1  0  0  0  0
 22 23  1  0  0  0  0
 22 66  2  0  0  0  0
 23 24  1  0  0  0  0
 23 65  1  0  0  0  0
 24 25  1  0  0  0  0
 25 26  1  0  0  0  0
 25 63  1  0  0  0  0
 26 27  1  0  0  0  0
 26 62  2  0  0  0  0
 27 28  1  0  0  0  0
 27 55  1  0  0  0  0
 28 29  1  0  0  0  0
 29 30  1  0  0  0  0
 29 54  2  0  0  0  0
 30 31  1  0  0  0  0
 30 34  1  0  0  0  0
 31 32  1  0  0  0  0
 31 33  1  0  0  0  0
 34 35  1  0  0  0  0
 34 53  1  0  0  0  0
 35 36  1  0  0  0  0
 35 52  2  0  0  0  0
 36 37  1  0  0  0  0
 36 51  1  0  0  0  0
 36 73  1  0  0  0  0
 37 38  1  0  0  0  0
 38 39  1  0  0  0  0
 39 40  1  0  0  0  0
 39 50  1  0  0  0  0
 40 41  1  0  0  0  0
 40 49  2  0  0  0  0
 41 42  1  0  0  0  0
 42 43  1  0  0  0  0
 43 44  1  0  0  0  0
 43 47  1  0  0  0  0
 43 48  1  0  0  0  0
 44 45  1  0  0  0  0
 44 46  1  0  0  0  0
 50 51  1  0  0  0  0
 55 56  1  0  0  0  0
 56 57  1  0  0  0  0
 56 61  1  0  0  0  0
 57 58  1  0  0  0  0
 58 59  1  0  0  0  0
 58 71  1  0  0  0  0
 59 60  1  0  0  0  0
 60 61  1  0  0  0  0
 63 64  1  0  0  0  0
 64 65  1  0  0  0  0
 67 68  4  0  0  0  0
 67 72  4  0  0  0  0
 68 69  4  0  0  0  0
 69 70  4  0  0  0  0
 70 71  4  0  0  0  0
 71 72  4  0  0  0  0
M  END
$$$$
