mol_bioactive_1
  PyMOL3.1          3D                             0

 73 79  0  0  0  0  0  0  0  0999 V2000
    1.2771   -5.9463    4.3964 C   0  0  0  0  0  0  0  0  0  0  0  0
   -0.0405   -6.5464    4.3375 C   0  0  0  0  0  0  0  0  0  0  0  0
   -0.6387   -6.5947    3.0518 O   0  0  0  0  0  0  0  0  0  0  0  0
    0.0327   -7.1788    1.9703 C   0  0  0  0  0  0  0  0  0  0  0  0
   -1.0674   -5.9742    5.1944 C   0  0  0  0  0  0  0  0  0  0  0  0
   -1.5342   -7.0033    5.8704 N   0  0  0  0  0  0  0  0  0  0  0  0
   -2.4101   -6.8666    6.8364 C   0  0  0  0  0  0  0  0  0  0  0  0
   -2.8714   -5.6276    7.2175 C   0  0  0  0  0  0  0  0  0  0  0  0
   -2.4052   -4.4982    6.5467 C   0  0  0  0  0  0  0  0  0  0  0  0
   -1.4926   -4.6742    5.5128 C   0  0  0  0  0  0  0  0  0  0  0  0
   -1.0544   -3.4991    4.7929 C   0  0  0  0  0  0  0  0  0  0  0  0
   -0.0888   -2.6450    5.2216 N   0  0  0  0  0  0  0  0  0  0  0  0
    0.7366   -2.7637    6.4582 C   0  0  0  0  0  0  0  0  0  0  0  0
    0.4172   -1.7829    7.4847 C   0  0  0  0  0  0  0  0  0  0  0  0
   -1.5309   -3.0881    3.5275 C   0  0  0  0  0  0  0  0  0  0  0  0
   -2.4837   -3.7473    2.6033 C   0  0  0  0  0  0  0  0  0  0  0  0
   -4.0095   -3.5342    2.8283 C   0  0  0  0  0  0  0  0  0  0  0  0
   -4.5913   -4.6872    3.6070 C   0  0  0  0  0  0  0  0  0  0  0  0
   -4.3216   -2.2860    3.5556 C   0  0  0  0  0  0  0  0  0  0  0  0
   -4.6713   -3.5945    1.4207 C   0  0  0  0  0  0  0  0  0  0  0  0
   -4.4456   -2.3734    0.6183 O   0  0  0  0  0  0  0  0  0  0  0  0
   -5.4419   -1.4175    0.3595 C   0  0  0  0  0  0  0  0  0  0  0  0
   -5.3672   -0.7104   -0.9711 C   0  0  0  0  0  0  0  0  0  0  0  0
   -4.3934   -1.3757   -1.7756 N   0  0  0  0  0  0  0  0  0  0  0  0
   -4.2862   -1.0725   -3.1133 N   0  0  0  0  0  0  0  0  0  0  0  0
   -3.0838   -0.8193   -3.6667 C   0  0  0  0  0  0  0  0  0  0  0  0
   -1.8744   -0.7150   -2.7831 C   0  0  0  0  0  0  0  0  0  0  0  0
   -0.7206   -1.3373   -3.4232 N   0  0  0  0  0  0  0  0  0  0  0  0
   -0.1713   -2.5109   -3.0724 C   0  0  0  0  0  0  0  0  0  0  0  0
    1.0336   -2.9205   -3.8334 C   0  0  0  0  0  0  0  0  0  0  0  0
    0.8318   -4.0940   -4.8212 C   0  0  0  0  0  0  0  0  0  0  0  0
    1.8983   -4.1681   -5.8491 C   0  0  0  0  0  0  0  0  0  0  0  0
   -0.5293   -4.1977   -5.3781 C   0  0  0  0  0  0  0  0  0  0  0  0
    2.1119   -3.1929   -2.8956 N   0  0  0  0  0  0  0  0  0  0  0  0
    2.8570   -2.1332   -2.4530 C   0  0  0  0  0  0  0  0  0  0  0  0
    4.0576   -2.2407   -1.5567 C   0  0  0  0  0  0  0  0  0  0  0  0
    4.2328   -0.9810   -0.7320 C   0  0  0  0  0  0  0  0  0  0  0  0
    5.4398   -1.0462    0.1023 C   0  0  0  0  0  0  0  0  0  0  0  0
    6.5814   -1.3709   -0.7663 N   0  0  0  0  0  0  0  0  0  0  0  0
    7.6899   -0.6001   -0.7961 C   0  0  0  0  0  0  0  0  0  0  0  0
    8.5958   -0.7374   -1.8498 C   0  0  0  0  0  0  0  0  0  0  0  0
    9.3947   -0.8613   -2.7020 C   0  0  0  0  0  0  0  0  0  0  0  0
   10.1974   -1.1583   -3.8468 C   0  0  0  0  0  0  0  0  0  0  0  0
    9.8693   -2.4338   -4.4306 N   0  0  0  0  0  0  0  0  0  0  0  0
    9.6147   -3.5032   -3.5811 C   0  0  0  0  0  0  0  0  0  0  0  0
   10.2168   -2.7484   -5.7558 C   0  0  0  0  0  0  0  0  0  0  0  0
    9.9681   -0.0785   -4.8628 C   0  0  0  0  0  0  0  0  0  0  0  0
   11.6560   -1.1885   -3.4750 C   0  0  0  0  0  0  0  0  0  0  0  0
    7.8748    0.2340    0.0756 O   0  0  0  0  0  0  0  0  0  0  0  0
    6.4657   -2.5264   -1.5987 C   0  0  0  0  0  0  0  0  0  0  0  0
    5.2718   -2.4705   -2.4318 C   0  0  0  0  0  0  0  0  0  0  0  0
    2.5403   -1.0066   -2.8528 O   0  0  0  0  0  0  0  0  0  0  0  0
    2.3175   -4.5598   -2.4250 C   0  0  0  0  0  0  0  0  0  0  0  0
   -0.5876   -3.1131   -2.1119 O   0  0  0  0  0  0  0  0  0  0  0  0
   -1.6279    0.8112   -2.5205 C   0  0  0  0  0  0  0  0  0  0  0  0
   -0.9310    1.3711   -1.2722 C   0  0  0  0  0  0  0  0  0  0  0  0
   -0.7903    0.3805   -0.2089 C   0  0  0  0  0  0  0  0  0  0  0  0
    0.0383    0.7652    0.8838 N   0  0  0  0  0  0  0  0  0  0  0  0
    0.9128    1.8824    0.7664 C   0  0  0  0  0  0  0  0  0  0  0  0
    0.9897    2.5604   -0.5430 C   0  0  0  0  0  0  0  0  0  0  0  0
    0.3492    1.9063   -1.6621 O   0  0  0  0  0  0  0  0  0  0  0  0
   -2.9604   -0.5991   -4.8735 O   0  0  0  0  0  0  0  0  0  0  0  0
   -5.5145   -1.1004   -3.8934 C   0  0  0  0  0  0  0  0  0  0  0  0
   -6.6172   -0.3271   -3.1540 C   0  0  0  0  0  0  0  0  0  0  0  0
   -6.7319   -0.7160   -1.6996 C   0  0  0  0  0  0  0  0  0  0  0  0
   -6.3265   -1.1199    1.1464 O   0  0  0  0  0  0  0  0  0  0  0  0
   -0.8014   -1.9149    3.2501 C   0  0  0  0  0  0  0  0  0  0  0  0
    0.0653   -1.6800    4.3050 C   0  0  0  0  0  0  0  0  0  0  0  0
    0.9482   -0.5576    4.2358 C   0  0  0  0  0  0  0  0  0  0  0  0
    0.8959    0.2374    3.0951 C   0  0  0  0  0  0  0  0  0  0  0  0
    0.0320   -0.0225    2.0354 C   0  0  0  0  0  0  0  0  0  0  0  0
   -0.8561   -1.1036    2.1212 C   0  0  0  0  0  0  0  0  0  0  0  0
    3.9548   -3.2806   -0.6732 F   0  0  0  0  0  0  0  0  0  0  0  0
  1  2  1  0  0  0  0
  2  3  1  0  0  0  0
  2  5  1  0  0  0  0
  3  4  1  0  0  0  0
  5  6  4  0  0  0  0
  5 10  4  0  0  0  0
  6  7  4  0  0  0  0
  7  8  4  0  0  0  0
  8  9  4  0  0  0  0
  9 10  4  0  0  0  0
 10 11  1  0  0  0  0
 11 12  4  0  0  0  0
 11 15  4  0  0  0  0
 12 13  1  0  0  0  0
 12 68  4  0  0  0  0
 13 14  1  0  0  0  0
 15 16  1  0  0  0  0
 15 67  4  0  0  0  0
 16 17  1  0  0  0  0
 17 18  1  0  0  0  0
 17 19  1  0  0  0  0
 17 20  1  0  0  0  0
 20 21  1  0  0  0  0
 21 22  1  0  0  0  0
 22 23  1  0  0  0  0
 22 66  2  0  0  0  0
 23 24  1  0  0  0  0
 23 65  1  0  0  0  0
 24 25  1  0  0  0  0
 25 26  1  0  0  0  0
 25 63  1  0  0  0  0
 26 27  1  0  0  0  0
 26 62  2  0  0  0  0
 27 28  1  0  0  0  0
 27 55  1  0  0  0  0
 28 29  1  0  0  0  0
 29 30  1  0  0  0  0
 29 54  2  0  0  0  0
 30 31  1  0  0  0  0
 30 34  1  0  0  0  0
 31 32  1  0  0  0  0
 31 33  1  0  0  0  0
 34 35  1  0  0  0  0
 34 53  1  0  0  0  0
 35 36  1  0  0  0  0
 35 52  2  0  0  0  0
 36 37  1  0  0  0  0
 36 51  1  0  0  0  0
 36 73  1  0  0  0  0
 37 38  1  0  0  0  0
 38 39  1  0  0  0  0
 39 40  1  0  0  0  0
 39 50  1  0  0  0  0
 40 41  1  0  0  0  0
 40 49  2  0  0  0  0
 41 42  1  0  0  0  0
 42 43  1  0  0  0  0
 43 44  1  0  0  0  0
 43 47  1  0  0  0  0
 43 48  1  0  0  0  0
 44 45  1  0  0  0  0
 44 46  1  0  0  0  0
 50 51  1  0  0  0  0
 55 56  1  0  0  0  0
 56 57  1  0  0  0  0
 56 61  1  0  0  0  0
 57 58  1  0  0  0  0
 58 59  1  0  0  0  0
 58 71  1  0  0  0  0
 59 60  1  0  0  0  0
 60 61  1  0  0  0  0
 63 64  1  0  0  0  0
 64 65  1  0  0  0  0
 67 68  4  0  0  0  0
 67 72  4  0  0  0  0
 68 69  4  0  0  0  0
 69 70  4  0  0  0  0
 70 71  4  0  0  0  0
 71 72  4  0  0  0  0
M  END
$$$$
