mol_ETKDG5_293
  PyMOL3.1          3D                             0

 73 79  0  0  0  0  0  0  0  0999 V2000
   -2.0578    3.7477   -2.9035 C   0  0  0  0  0  0  0  0  0  0  0  0
   -0.7494    3.0705   -3.0475 C   0  0  0  0  0  0  0  0  0  0  0  0
    0.1063    3.7382   -4.0155 O   0  0  0  0  0  0  0  0  0  0  0  0
    1.1837    4.4558   -3.4795 C   0  0  0  0  0  0  0  0  0  0  0  0
   -0.8733    1.6492   -3.4658 C   0  0  0  0  0  0  0  0  0  0  0  0
   -1.0410    1.4033   -4.7545 N   0  0  0  0  0  0  0  0  0  0  0  0
   -1.1115    0.1381   -5.2309 C   0  0  0  0  0  0  0  0  0  0  0  0
   -1.0488   -0.9701   -4.3822 C   0  0  0  0  0  0  0  0  0  0  0  0
   -0.8820   -0.7415   -3.0138 C   0  0  0  0  0  0  0  0  0  0  0  0
   -0.8275    0.5882   -2.5553 C   0  0  0  0  0  0  0  0  0  0  0  0
   -0.7080    0.7833   -1.1373 C   0  0  0  0  0  0  0  0  0  0  0  0
    0.4771    0.7677   -0.4914 N   0  0  0  0  0  0  0  0  0  0  0  0
    1.8493    0.6411   -1.1006 C   0  0  0  0  0  0  0  0  0  0  0  0
    2.5079   -0.6318   -0.7992 C   0  0  0  0  0  0  0  0  0  0  0  0
   -1.7708    1.0571   -0.2301 C   0  0  0  0  0  0  0  0  0  0  0  0
   -3.2265    1.3502   -0.4672 C   0  0  0  0  0  0  0  0  0  0  0  0
   -4.2387    0.1379   -0.5271 C   0  0  0  0  0  0  0  0  0  0  0  0
   -4.1501   -0.6317   -1.8373 C   0  0  0  0  0  0  0  0  0  0  0  0
   -5.6286    0.7095   -0.5212 C   0  0  0  0  0  0  0  0  0  0  0  0
   -4.0687   -0.8083    0.6269 C   0  0  0  0  0  0  0  0  0  0  0  0
   -4.9641   -0.5471    1.8203 O   0  0  0  0  0  0  0  0  0  0  0  0
   -5.5722   -1.5704    2.6068 C   0  0  0  0  0  0  0  0  0  0  0  0
   -6.4056   -1.1804    3.8131 C   0  0  0  0  0  0  0  0  0  0  0  0
   -6.7252    0.2231    3.7837 N   0  0  0  0  0  0  0  0  0  0  0  0
   -7.5105    0.7201    4.8286 N   0  0  0  0  0  0  0  0  0  0  0  0
   -7.0817    1.7574    5.6107 C   0  0  0  0  0  0  0  0  0  0  0  0
   -5.7208    2.3352    5.3460 C   0  0  0  0  0  0  0  0  0  0  0  0
   -5.6495    3.7617    5.5697 N   0  0  0  0  0  0  0  0  0  0  0  0
   -5.5628    4.6678    4.5884 C   0  0  0  0  0  0  0  0  0  0  0  0
   -5.2613    6.0689    4.9950 C   0  0  0  0  0  0  0  0  0  0  0  0
   -6.5122    7.0089    5.0850 C   0  0  0  0  0  0  0  0  0  0  0  0
   -6.1801    8.3434    5.6790 C   0  0  0  0  0  0  0  0  0  0  0  0
   -7.6690    6.3579    5.7939 C   0  0  0  0  0  0  0  0  0  0  0  0
   -4.2292    6.5544    4.0693 N   0  0  0  0  0  0  0  0  0  0  0  0
   -2.9054    6.2044    4.3028 C   0  0  0  0  0  0  0  0  0  0  0  0
   -1.7496    6.5308    3.3834 C   0  0  0  0  0  0  0  0  0  0  0  0
   -0.3740    6.2332    4.0051 C   0  0  0  0  0  0  0  0  0  0  0  0
    0.7356    6.4349    3.0117 C   0  0  0  0  0  0  0  0  0  0  0  0
    0.4610    5.6884    1.7683 N   0  0  0  0  0  0  0  0  0  0  0  0
    1.3479    4.8172    1.1822 C   0  0  0  0  0  0  0  0  0  0  0  0
    2.5226    4.4575    1.8065 C   0  0  0  0  0  0  0  0  0  0  0  0
    3.5496    4.1086    2.2298 C   0  0  0  0  0  0  0  0  0  0  0  0
    4.7510    3.7877    2.9165 C   0  0  0  0  0  0  0  0  0  0  0  0
    5.3643    2.6138    2.3869 N   0  0  0  0  0  0  0  0  0  0  0  0
    4.9667    1.3408    2.8271 C   0  0  0  0  0  0  0  0  0  0  0  0
    6.1742    2.6700    1.2375 C   0  0  0  0  0  0  0  0  0  0  0  0
    5.7028    4.9667    2.8277 C   0  0  0  0  0  0  0  0  0  0  0  0
    4.4627    3.5897    4.3959 C   0  0  0  0  0  0  0  0  0  0  0  0
    1.0871    4.3030    0.0800 O   0  0  0  0  0  0  0  0  0  0  0  0
   -0.8212    5.8892    1.1742 C   0  0  0  0  0  0  0  0  0  0  0  0
   -1.9071    5.6344    2.1597 C   0  0  0  0  0  0  0  0  0  0  0  0
   -2.6618    5.5498    5.3346 O   0  0  0  0  0  0  0  0  0  0  0  0
   -4.6570    7.2697    2.8480 C   0  0  0  0  0  0  0  0  0  0  0  0
   -5.6028    4.3156    3.4158 O   0  0  0  0  0  0  0  0  0  0  0  0
   -4.6750    1.6259    6.2945 C   0  0  0  0  0  0  0  0  0  0  0  0
   -3.2161    2.0858    6.0792 C   0  0  0  0  0  0  0  0  0  0  0  0
   -2.7016    1.3550    4.8941 C   0  0  0  0  0  0  0  0  0  0  0  0
   -1.3106    1.6593    4.6550 N   0  0  0  0  0  0  0  0  0  0  0  0
   -0.4410    1.4531    5.8401 C   0  0  0  0  0  0  0  0  0  0  0  0
   -1.0463    2.1239    7.0780 C   0  0  0  0  0  0  0  0  0  0  0  0
   -2.4515    1.7317    7.2565 O   0  0  0  0  0  0  0  0  0  0  0  0
   -7.7592    2.1874    6.5632 O   0  0  0  0  0  0  0  0  0  0  0  0
   -8.8250    0.0854    4.9678 C   0  0  0  0  0  0  0  0  0  0  0  0
   -8.6316   -1.4518    5.0328 C   0  0  0  0  0  0  0  0  0  0  0  0
   -7.7404   -1.9772    3.8971 C   0  0  0  0  0  0  0  0  0  0  0  0
   -5.4707   -2.7943    2.3626 O   0  0  0  0  0  0  0  0  0  0  0  0
   -1.1281    1.1281    1.0168 C   0  0  0  0  0  0  0  0  0  0  0  0
    0.2370    0.9637    0.8125 C   0  0  0  0  0  0  0  0  0  0  0  0
    1.1254    1.0393    1.9284 C   0  0  0  0  0  0  0  0  0  0  0  0
    0.5697    1.2875    3.1772 C   0  0  0  0  0  0  0  0  0  0  0  0
   -0.8012    1.4407    3.3722 C   0  0  0  0  0  0  0  0  0  0  0  0
   -1.6797    1.3814    2.2694 C   0  0  0  0  0  0  0  0  0  0  0  0
   -1.7720    7.8707    3.0280 F   0  0  0  0  0  0  0  0  0  0  0  0
  1  2  1  0  0  0  0
  2  3  1  0  0  0  0
  2  5  1  0  0  0  0
  3  4  1  0  0  0  0
  5  6  4  0  0  0  0
  5 10  4  0  0  0  0
  6  7  4  0  0  0  0
  7  8  4  0  0  0  0
  8  9  4  0  0  0  0
  9 10  4  0  0  0  0
 10 11  1  0  0  0  0
 11 12  4  0  0  0  0
 11 15  4  0  0  0  0
 12 13  1  0  0  0  0
 12 68  4  0  0  0  0
 13 14  1  0  0  0  0
 15 16  1  0  0  0  0
 15 67  4  0  0  0  0
 16 17  1  0  0  0  0
 17 18  1  0  0  0  0
 17 19  1  0  0  0  0
 17 20  1  0  0  0  0
 20 21  1  0  0  0  0
 21 22  1  0  0  0  0
 22 23  1  0  0  0  0
 22 66  2  0  0  0  0
 23 24  1  0  0  0  0
 23 65  1  0  0  0  0
 24 25  1  0  0  0  0
 25 26  1  0  0  0  0
 25 63  1  0  0  0  0
 26 27  1  0  0  0  0
 26 62  2  0  0  0  0
 27 28  1  0  0  0  0
 27 55  1  0  0  0  0
 28 29  1  0  0  0  0
 29 30  1  0  0  0  0
 29 54  2  0  0  0  0
 30 31  1  0  0  0  0
 30 34  1  0  0  0  0
 31 32  1  0  0  0  0
 31 33  1  0  0  0  0
 34 35  1  0  0  0  0
 34 53  1  0  0  0  0
 35 36  1  0  0  0  0
 35 52  2  0  0  0  0
 36 37  1  0  0  0  0
 36 51  1  0  0  0  0
 36 73  1  0  0  0  0
 37 38  1  0  0  0  0
 38 39  1  0  0  0  0
 39 40  1  0  0  0  0
 39 50  1  0  0  0  0
 40 41  1  0  0  0  0
 40 49  2  0  0  0  0
 41 42  1  0  0  0  0
 42 43  1  0  0  0  0
 43 44  1  0  0  0  0
 43 47  1  0  0  0  0
 43 48  1  0  0  0  0
 44 45  1  0  0  0  0
 44 46  1  0  0  0  0
 50 51  1  0  0  0  0
 55 56  1  0  0  0  0
 56 57  1  0  0  0  0
 56 61  1  0  0  0  0
 57 58  1  0  0  0  0
 58 59  1  0  0  0  0
 58 71  1  0  0  0  0
 59 60  1  0  0  0  0
 60 61  1  0  0  0  0
 63 64  1  0  0  0  0
 64 65  1  0  0  0  0
 67 68  4  0  0  0  0
 67 72  4  0  0  0  0
 68 69  4  0  0  0  0
 69 70  4  0  0  0  0
 70 71  4  0  0  0  0
 71 72  4  0  0  0  0
M  END
$$$$
