mol_ETKDG5_253
  PyMOL3.1          3D                             0

 73 79  0  0  0  0  0  0  0  0999 V2000
    1.0452   -5.5907   -1.9311 C   0  0  0  0  0  0  0  0  0  0  0  0
   -0.2490   -5.1665   -2.5127 C   0  0  0  0  0  0  0  0  0  0  0  0
   -1.2457   -6.2069   -2.5283 O   0  0  0  0  0  0  0  0  0  0  0  0
   -2.2705   -6.1174   -1.5822 C   0  0  0  0  0  0  0  0  0  0  0  0
   -0.1139   -4.6766   -3.9058 C   0  0  0  0  0  0  0  0  0  0  0  0
    0.2227   -5.5442   -4.8382 N   0  0  0  0  0  0  0  0  0  0  0  0
    0.3299   -5.1789   -6.1367 C   0  0  0  0  0  0  0  0  0  0  0  0
    0.1205   -3.8595   -6.5472 C   0  0  0  0  0  0  0  0  0  0  0  0
   -0.2408   -2.9234   -5.5740 C   0  0  0  0  0  0  0  0  0  0  0  0
   -0.3230   -3.3424   -4.2384 C   0  0  0  0  0  0  0  0  0  0  0  0
   -0.6416   -2.3626   -3.2301 C   0  0  0  0  0  0  0  0  0  0  0  0
   -1.9039   -1.9573   -2.9524 N   0  0  0  0  0  0  0  0  0  0  0  0
   -3.1676   -2.3816   -3.6500 C   0  0  0  0  0  0  0  0  0  0  0  0
   -4.1093   -3.1342   -2.8197 C   0  0  0  0  0  0  0  0  0  0  0  0
    0.2830   -1.7279   -2.3628 C   0  0  0  0  0  0  0  0  0  0  0  0
    1.7669   -1.9126   -2.2096 C   0  0  0  0  0  0  0  0  0  0  0  0
    2.6739   -1.0668   -3.1869 C   0  0  0  0  0  0  0  0  0  0  0  0
    2.5384   -1.4331   -4.6404 C   0  0  0  0  0  0  0  0  0  0  0  0
    4.1166   -1.3745   -2.8639 C   0  0  0  0  0  0  0  0  0  0  0  0
    2.3913    0.3604   -3.0285 C   0  0  0  0  0  0  0  0  0  0  0  0
    3.1742    1.0641   -1.9530 O   0  0  0  0  0  0  0  0  0  0  0  0
    3.5408    2.4334   -2.0372 C   0  0  0  0  0  0  0  0  0  0  0  0
    4.3111    3.0453   -0.9127 C   0  0  0  0  0  0  0  0  0  0  0  0
    4.5514    2.0963    0.1383 N   0  0  0  0  0  0  0  0  0  0  0  0
    5.2767    2.5682    1.2233 N   0  0  0  0  0  0  0  0  0  0  0  0
    4.7832    2.4762    2.4831 C   0  0  0  0  0  0  0  0  0  0  0  0
    3.4466    1.8167    2.7132 C   0  0  0  0  0  0  0  0  0  0  0  0
    3.4336    1.1658    4.0082 N   0  0  0  0  0  0  0  0  0  0  0  0
    3.4840   -0.1569    4.1872 C   0  0  0  0  0  0  0  0  0  0  0  0
    3.4118   -0.6240    5.6034 C   0  0  0  0  0  0  0  0  0  0  0  0
    4.7841   -1.1399    6.1575 C   0  0  0  0  0  0  0  0  0  0  0  0
    4.7266   -1.4591    7.6150 C   0  0  0  0  0  0  0  0  0  0  0  0
    5.9102   -0.2080    5.8271 C   0  0  0  0  0  0  0  0  0  0  0  0
    2.3812   -1.6415    5.6971 N   0  0  0  0  0  0  0  0  0  0  0  0
    1.1093   -1.2453    5.9706 C   0  0  0  0  0  0  0  0  0  0  0  0
   -0.0529   -2.1780    6.1195 C   0  0  0  0  0  0  0  0  0  0  0  0
   -0.6431   -2.4048    4.7572 C   0  0  0  0  0  0  0  0  0  0  0  0
   -1.7841   -3.3586    4.8337 C   0  0  0  0  0  0  0  0  0  0  0  0
   -2.7602   -2.8264    5.7784 N   0  0  0  0  0  0  0  0  0  0  0  0
   -4.0400   -2.6154    5.3978 C   0  0  0  0  0  0  0  0  0  0  0  0
   -4.8534   -1.7168    6.0604 C   0  0  0  0  0  0  0  0  0  0  0  0
   -5.6189   -1.0321    6.5750 C   0  0  0  0  0  0  0  0  0  0  0  0
   -6.4352   -0.1354    7.2841 C   0  0  0  0  0  0  0  0  0  0  0  0
   -7.4489   -0.8591    7.9757 N   0  0  0  0  0  0  0  0  0  0  0  0
   -7.4433   -1.0051    9.3700 C   0  0  0  0  0  0  0  0  0  0  0  0
   -8.4225   -1.5810    7.2405 C   0  0  0  0  0  0  0  0  0  0  0  0
   -5.5647    0.6780    8.2355 C   0  0  0  0  0  0  0  0  0  0  0  0
   -7.0899    0.8625    6.3476 C   0  0  0  0  0  0  0  0  0  0  0  0
   -4.4779   -3.1975    4.4098 O   0  0  0  0  0  0  0  0  0  0  0  0
   -2.2873   -2.5292    7.0995 C   0  0  0  0  0  0  0  0  0  0  0  0
   -1.1325   -1.6205    7.0645 C   0  0  0  0  0  0  0  0  0  0  0  0
    0.8967   -0.0229    6.0955 O   0  0  0  0  0  0  0  0  0  0  0  0
    2.7232   -3.0394    5.3821 C   0  0  0  0  0  0  0  0  0  0  0  0
    3.4741   -0.9079    3.2330 O   0  0  0  0  0  0  0  0  0  0  0  0
    2.3192    2.9125    2.6965 C   0  0  0  0  0  0  0  0  0  0  0  0
    0.8807    2.3496    2.7510 C   0  0  0  0  0  0  0  0  0  0  0  0
    0.5302    1.9473    1.3636 C   0  0  0  0  0  0  0  0  0  0  0  0
   -0.8330    1.5067    1.2496 N   0  0  0  0  0  0  0  0  0  0  0  0
   -1.8293    2.4214    1.8271 C   0  0  0  0  0  0  0  0  0  0  0  0
   -1.3922    2.9339    3.2002 C   0  0  0  0  0  0  0  0  0  0  0  0
   -0.0006    3.4042    3.1865 O   0  0  0  0  0  0  0  0  0  0  0  0
    5.3971    2.9570    3.4526 O   0  0  0  0  0  0  0  0  0  0  0  0
    6.6082    3.0975    0.9211 C   0  0  0  0  0  0  0  0  0  0  0  0
    6.4883    4.1430   -0.2114 C   0  0  0  0  0  0  0  0  0  0  0  0
    5.6680    3.6237   -1.3876 C   0  0  0  0  0  0  0  0  0  0  0  0
    3.3022    3.2078   -2.9994 O   0  0  0  0  0  0  0  0  0  0  0  0
   -0.5261   -0.8978   -1.5575 C   0  0  0  0  0  0  0  0  0  0  0  0
   -1.8498   -1.0869   -1.9286 C   0  0  0  0  0  0  0  0  0  0  0  0
   -2.8820   -0.3880   -1.2144 C   0  0  0  0  0  0  0  0  0  0  0  0
   -2.5026    0.4477   -0.1692 C   0  0  0  0  0  0  0  0  0  0  0  0
   -1.1717    0.6434    0.1915 C   0  0  0  0  0  0  0  0  0  0  0  0
   -0.1484   -0.0389   -0.5143 C   0  0  0  0  0  0  0  0  0  0  0  0
    0.3192   -3.3730    6.6998 F   0  0  0  0  0  0  0  0  0  0  0  0
  1  2  1  0  0  0  0
  2  3  1  0  0  0  0
  2  5  1  0  0  0  0
  3  4  1  0  0  0  0
  5  6  4  0  0  0  0
  5 10  4  0  0  0  0
  6  7  4  0  0  0  0
  7  8  4  0  0  0  0
  8  9  4  0  0  0  0
  9 10  4  0  0  0  0
 10 11  1  0  0  0  0
 11 12  4  0  0  0  0
 11 15  4  0  0  0  0
 12 13  1  0  0  0  0
 12 68  4  0  0  0  0
 13 14  1  0  0  0  0
 15 16  1  0  0  0  0
 15 67  4  0  0  0  0
 16 17  1  0  0  0  0
 17 18  1  0  0  0  0
 17 19  1  0  0  0  0
 17 20  1  0  0  0  0
 20 21  1  0  0  0  0
 21 22  1  0  0  0  0
 22 23  1  0  0  0  0
 22 66  2  0  0  0  0
 23 24  1  0  0  0  0
 23 65  1  0  0  0  0
 24 25  1  0  0  0  0
 25 26  1  0  0  0  0
 25 63  1  0  0  0  0
 26 27  1  0  0  0  0
 26 62  2  0  0  0  0
 27 28  1  0  0  0  0
 27 55  1  0  0  0  0
 28 29  1  0  0  0  0
 29 30  1  0  0  0  0
 29 54  2  0  0  0  0
 30 31  1  0  0  0  0
 30 34  1  0  0  0  0
 31 32  1  0  0  0  0
 31 33  1  0  0  0  0
 34 35  1  0  0  0  0
 34 53  1  0  0  0  0
 35 36  1  0  0  0  0
 35 52  2  0  0  0  0
 36 37  1  0  0  0  0
 36 51  1  0  0  0  0
 36 73  1  0  0  0  0
 37 38  1  0  0  0  0
 38 39  1  0  0  0  0
 39 40  1  0  0  0  0
 39 50  1  0  0  0  0
 40 41  1  0  0  0  0
 40 49  2  0  0  0  0
 41 42  1  0  0  0  0
 42 43  1  0  0  0  0
 43 44  1  0  0  0  0
 43 47  1  0  0  0  0
 43 48  1  0  0  0  0
 44 45  1  0  0  0  0
 44 46  1  0  0  0  0
 50 51  1  0  0  0  0
 55 56  1  0  0  0  0
 56 57  1  0  0  0  0
 56 61  1  0  0  0  0
 57 58  1  0  0  0  0
 58 59  1  0  0  0  0
 58 71  1  0  0  0  0
 59 60  1  0  0  0  0
 60 61  1  0  0  0  0
 63 64  1  0  0  0  0
 64 65  1  0  0  0  0
 67 68  4  0  0  0  0
 67 72  4  0  0  0  0
 68 69  4  0  0  0  0
 69 70  4  0  0  0  0
 70 71  4  0  0  0  0
 71 72  4  0  0  0  0
M  END
$$$$
