mol_ETKDG3_171
  PyMOL3.1          3D                             0

 73 79  0  0  0  0  0  0  0  0999 V2000
    0.6911    3.2428    3.2411 C   0  0  0  0  0  0  0  0  0  0  0  0
    1.9157    2.6099    2.7056 C   0  0  0  0  0  0  0  0  0  0  0  0
    2.6145    3.4119    1.7456 O   0  0  0  0  0  0  0  0  0  0  0  0
    2.2023    3.3088    0.4175 C   0  0  0  0  0  0  0  0  0  0  0  0
    2.8888    2.2593    3.7590 C   0  0  0  0  0  0  0  0  0  0  0  0
    3.8618    3.1151    4.0119 N   0  0  0  0  0  0  0  0  0  0  0  0
    4.7783    2.8822    4.9787 C   0  0  0  0  0  0  0  0  0  0  0  0
    4.7332    1.7299    5.7646 C   0  0  0  0  0  0  0  0  0  0  0  0
    3.6977    0.8185    5.5290 C   0  0  0  0  0  0  0  0  0  0  0  0
    2.7759    1.0851    4.4923 C   0  0  0  0  0  0  0  0  0  0  0  0
    1.7419    0.1006    4.2383 C   0  0  0  0  0  0  0  0  0  0  0  0
    0.6687   -0.0903    5.0445 N   0  0  0  0  0  0  0  0  0  0  0  0
    0.2849    0.7041    6.2566 C   0  0  0  0  0  0  0  0  0  0  0  0
    0.4981   -0.0058    7.5154 C   0  0  0  0  0  0  0  0  0  0  0  0
    1.6587   -0.7595    3.1133 C   0  0  0  0  0  0  0  0  0  0  0  0
    2.5020   -0.8313    1.8726 C   0  0  0  0  0  0  0  0  0  0  0  0
    3.7867   -1.7431    1.9982 C   0  0  0  0  0  0  0  0  0  0  0  0
    4.7998   -1.2138    2.9931 C   0  0  0  0  0  0  0  0  0  0  0  0
    4.4993   -1.7196    0.6786 C   0  0  0  0  0  0  0  0  0  0  0  0
    3.3868   -3.1392    2.3882 C   0  0  0  0  0  0  0  0  0  0  0  0
    3.0731   -4.0418    1.2122 O   0  0  0  0  0  0  0  0  0  0  0  0
    3.6407   -5.3384    1.0353 C   0  0  0  0  0  0  0  0  0  0  0  0
    3.2547   -6.1520   -0.1806 C   0  0  0  0  0  0  0  0  0  0  0  0
    2.5019   -5.3565   -1.1043 N   0  0  0  0  0  0  0  0  0  0  0  0
    2.1037   -5.9640   -2.2888 N   0  0  0  0  0  0  0  0  0  0  0  0
    0.7855   -5.9672   -2.6709 C   0  0  0  0  0  0  0  0  0  0  0  0
   -0.2198   -5.2670   -1.8116 C   0  0  0  0  0  0  0  0  0  0  0  0
   -1.2675   -4.6440   -2.5917 N   0  0  0  0  0  0  0  0  0  0  0  0
   -1.3105   -3.3249   -2.8363 C   0  0  0  0  0  0  0  0  0  0  0  0
   -2.5478   -2.8106   -3.5061 C   0  0  0  0  0  0  0  0  0  0  0  0
   -2.3483   -2.4723   -5.0255 C   0  0  0  0  0  0  0  0  0  0  0  0
   -3.6456   -2.2285   -5.7320 C   0  0  0  0  0  0  0  0  0  0  0  0
   -1.4743   -3.4550   -5.7347 C   0  0  0  0  0  0  0  0  0  0  0  0
   -2.9858   -1.6419   -2.7244 N   0  0  0  0  0  0  0  0  0  0  0  0
   -3.7088   -1.8536   -1.5682 C   0  0  0  0  0  0  0  0  0  0  0  0
   -4.1412   -0.7699   -0.6066 C   0  0  0  0  0  0  0  0  0  0  0  0
   -2.8948   -0.2580    0.0734 C   0  0  0  0  0  0  0  0  0  0  0  0
   -3.2105    0.8372    1.0245 C   0  0  0  0  0  0  0  0  0  0  0  0
   -4.1467    0.3534    2.0386 N   0  0  0  0  0  0  0  0  0  0  0  0
   -3.8296    0.5204    3.3652 C   0  0  0  0  0  0  0  0  0  0  0  0
   -4.4585   -0.1313    4.4226 C   0  0  0  0  0  0  0  0  0  0  0  0
   -4.8751   -0.5555    5.4394 C   0  0  0  0  0  0  0  0  0  0  0  0
   -5.4702   -1.1397    6.5564 C   0  0  0  0  0  0  0  0  0  0  0  0
   -6.7233   -0.5337    6.8844 N   0  0  0  0  0  0  0  0  0  0  0  0
   -7.5770   -1.1130    7.8252 C   0  0  0  0  0  0  0  0  0  0  0  0
   -6.9937    0.7961    6.5145 C   0  0  0  0  0  0  0  0  0  0  0  0
   -4.5313   -1.0217    7.7634 C   0  0  0  0  0  0  0  0  0  0  0  0
   -5.6808   -2.6202    6.2732 C   0  0  0  0  0  0  0  0  0  0  0  0
   -2.8890    1.2698    3.6630 O   0  0  0  0  0  0  0  0  0  0  0  0
   -5.3519   -0.2704    1.5418 C   0  0  0  0  0  0  0  0  0  0  0  0
   -5.0897   -1.2949    0.4983 C   0  0  0  0  0  0  0  0  0  0  0  0
   -3.9926   -3.0336   -1.2828 O   0  0  0  0  0  0  0  0  0  0  0  0
   -2.5296   -0.2973   -3.1283 C   0  0  0  0  0  0  0  0  0  0  0  0
   -0.4284   -2.5912   -2.4161 O   0  0  0  0  0  0  0  0  0  0  0  0
   -0.8785   -6.2547   -0.7724 C   0  0  0  0  0  0  0  0  0  0  0  0
   -1.8459   -5.5392    0.2190 C   0  0  0  0  0  0  0  0  0  0  0  0
   -1.0064   -4.8670    1.2541 C   0  0  0  0  0  0  0  0  0  0  0  0
   -1.8165   -4.2171    2.2666 N   0  0  0  0  0  0  0  0  0  0  0  0
   -2.8204   -5.1140    2.8872 C   0  0  0  0  0  0  0  0  0  0  0  0
   -3.6053   -5.8809    1.8055 C   0  0  0  0  0  0  0  0  0  0  0  0
   -2.6930   -6.5299    0.8405 O   0  0  0  0  0  0  0  0  0  0  0  0
    0.4098   -6.5658   -3.6926 O   0  0  0  0  0  0  0  0  0  0  0  0
    3.1809   -6.5271   -3.1071 C   0  0  0  0  0  0  0  0  0  0  0  0
    4.0797   -7.4254   -2.2254 C   0  0  0  0  0  0  0  0  0  0  0  0
    4.4925   -6.7363   -0.9211 C   0  0  0  0  0  0  0  0  0  0  0  0
    4.4475   -5.8785    1.8295 O   0  0  0  0  0  0  0  0  0  0  0  0
    0.5077   -1.5408    3.3536 C   0  0  0  0  0  0  0  0  0  0  0  0
   -0.0665   -1.0991    4.5350 C   0  0  0  0  0  0  0  0  0  0  0  0
   -1.2738   -1.7241    4.9974 C   0  0  0  0  0  0  0  0  0  0  0  0
   -1.8224   -2.7490    4.2063 C   0  0  0  0  0  0  0  0  0  0  0  0
   -1.2306   -3.1814    3.0218 C   0  0  0  0  0  0  0  0  0  0  0  0
   -0.0530   -2.5529    2.5641 C   0  0  0  0  0  0  0  0  0  0  0  0
   -4.8307    0.2340   -1.2814 F   0  0  0  0  0  0  0  0  0  0  0  0
  1  2  1  0  0  0  0
  2  3  1  0  0  0  0
  2  5  1  0  0  0  0
  3  4  1  0  0  0  0
  5  6  4  0  0  0  0
  5 10  4  0  0  0  0
  6  7  4  0  0  0  0
  7  8  4  0  0  0  0
  8  9  4  0  0  0  0
  9 10  4  0  0  0  0
 10 11  1  0  0  0  0
 11 12  4  0  0  0  0
 11 15  4  0  0  0  0
 12 13  1  0  0  0  0
 12 68  4  0  0  0  0
 13 14  1  0  0  0  0
 15 16  1  0  0  0  0
 15 67  4  0  0  0  0
 16 17  1  0  0  0  0
 17 18  1  0  0  0  0
 17 19  1  0  0  0  0
 17 20  1  0  0  0  0
 20 21  1  0  0  0  0
 21 22  1  0  0  0  0
 22 23  1  0  0  0  0
 22 66  2  0  0  0  0
 23 24  1  0  0  0  0
 23 65  1  0  0  0  0
 24 25  1  0  0  0  0
 25 26  1  0  0  0  0
 25 63  1  0  0  0  0
 26 27  1  0  0  0  0
 26 62  2  0  0  0  0
 27 28  1  0  0  0  0
 27 55  1  0  0  0  0
 28 29  1  0  0  0  0
 29 30  1  0  0  0  0
 29 54  2  0  0  0  0
 30 31  1  0  0  0  0
 30 34  1  0  0  0  0
 31 32  1  0  0  0  0
 31 33  1  0  0  0  0
 34 35  1  0  0  0  0
 34 53  1  0  0  0  0
 35 36  1  0  0  0  0
 35 52  2  0  0  0  0
 36 37  1  0  0  0  0
 36 51  1  0  0  0  0
 36 73  1  0  0  0  0
 37 38  1  0  0  0  0
 38 39  1  0  0  0  0
 39 40  1  0  0  0  0
 39 50  1  0  0  0  0
 40 41  1  0  0  0  0
 40 49  2  0  0  0  0
 41 42  1  0  0  0  0
 42 43  1  0  0  0  0
 43 44  1  0  0  0  0
 43 47  1  0  0  0  0
 43 48  1  0  0  0  0
 44 45  1  0  0  0  0
 44 46  1  0  0  0  0
 50 51  1  0  0  0  0
 55 56  1  0  0  0  0
 56 57  1  0  0  0  0
 56 61  1  0  0  0  0
 57 58  1  0  0  0  0
 58 59  1  0  0  0  0
 58 71  1  0  0  0  0
 59 60  1  0  0  0  0
 60 61  1  0  0  0  0
 63 64  1  0  0  0  0
 64 65  1  0  0  0  0
 67 68  4  0  0  0  0
 67 72  4  0  0  0  0
 68 69  4  0  0  0  0
 69 70  4  0  0  0  0
 70 71  4  0  0  0  0
 71 72  4  0  0  0  0
M  END
$$$$
