mol_ETKDG2_133
  PyMOL3.1          3D                             0

 73 79  0  0  0  0  0  0  0  0999 V2000
   -2.8993    0.5142    1.3658 C   0  0  0  0  0  0  0  0  0  0  0  0
   -1.9504    1.6437    1.3771 C   0  0  0  0  0  0  0  0  0  0  0  0
   -2.1466    2.6094    0.3643 O   0  0  0  0  0  0  0  0  0  0  0  0
   -1.7865    2.2401   -0.9386 C   0  0  0  0  0  0  0  0  0  0  0  0
   -1.9653    2.3722    2.6571 C   0  0  0  0  0  0  0  0  0  0  0  0
   -2.9850    3.1804    2.8928 N   0  0  0  0  0  0  0  0  0  0  0  0
   -3.0931    3.8486    4.0581 C   0  0  0  0  0  0  0  0  0  0  0  0
   -2.1441    3.7071    5.0719 C   0  0  0  0  0  0  0  0  0  0  0  0
   -1.0657    2.8511    4.8449 C   0  0  0  0  0  0  0  0  0  0  0  0
   -0.9720    2.1965    3.6140 C   0  0  0  0  0  0  0  0  0  0  0  0
    0.1696    1.3517    3.3889 C   0  0  0  0  0  0  0  0  0  0  0  0
    0.2436    0.0802    3.8451 N   0  0  0  0  0  0  0  0  0  0  0  0
   -0.8123   -0.6932    4.5818 C   0  0  0  0  0  0  0  0  0  0  0  0
   -0.5283   -0.8548    6.0025 C   0  0  0  0  0  0  0  0  0  0  0  0
    1.3203    1.6812    2.6264 C   0  0  0  0  0  0  0  0  0  0  0  0
    1.6758    2.9035    1.8292 C   0  0  0  0  0  0  0  0  0  0  0  0
    2.3699    4.0917    2.6176 C   0  0  0  0  0  0  0  0  0  0  0  0
    2.7436    5.1453    1.5983 C   0  0  0  0  0  0  0  0  0  0  0  0
    1.4112    4.7730    3.5276 C   0  0  0  0  0  0  0  0  0  0  0  0
    3.6158    3.6926    3.3972 C   0  0  0  0  0  0  0  0  0  0  0  0
    4.9228    3.7747    2.6585 O   0  0  0  0  0  0  0  0  0  0  0  0
    6.1776    4.0623    3.2612 C   0  0  0  0  0  0  0  0  0  0  0  0
    7.4230    4.0796    2.3935 C   0  0  0  0  0  0  0  0  0  0  0  0
    7.0690    3.9459    1.0213 N   0  0  0  0  0  0  0  0  0  0  0  0
    8.0895    3.9655    0.0828 N   0  0  0  0  0  0  0  0  0  0  0  0
    8.2084    2.9650   -0.8301 C   0  0  0  0  0  0  0  0  0  0  0  0
    7.2375    1.8316   -0.7675 C   0  0  0  0  0  0  0  0  0  0  0  0
    6.8529    1.3723   -2.0827 N   0  0  0  0  0  0  0  0  0  0  0  0
    5.6700    1.6589   -2.6319 C   0  0  0  0  0  0  0  0  0  0  0  0
    5.3646    0.9488   -3.9011 C   0  0  0  0  0  0  0  0  0  0  0  0
    5.5170    1.8691   -5.1561 C   0  0  0  0  0  0  0  0  0  0  0  0
    5.2311    1.1662   -6.4360 C   0  0  0  0  0  0  0  0  0  0  0  0
    6.8585    2.5573   -5.1754 C   0  0  0  0  0  0  0  0  0  0  0  0
    4.0261    0.3713   -3.7260 N   0  0  0  0  0  0  0  0  0  0  0  0
    3.9114   -0.8169   -3.0373 C   0  0  0  0  0  0  0  0  0  0  0  0
    2.6160   -1.4835   -2.6634 C   0  0  0  0  0  0  0  0  0  0  0  0
    2.8296   -2.8320   -1.9636 C   0  0  0  0  0  0  0  0  0  0  0  0
    1.5675   -3.4024   -1.4574 C   0  0  0  0  0  0  0  0  0  0  0  0
    0.7833   -2.4273   -0.6911 N   0  0  0  0  0  0  0  0  0  0  0  0
    0.1955   -2.7038    0.5038 C   0  0  0  0  0  0  0  0  0  0  0  0
    0.4039   -3.8972    1.1499 C   0  0  0  0  0  0  0  0  0  0  0  0
    0.4385   -4.8763    1.7497 C   0  0  0  0  0  0  0  0  0  0  0  0
    0.5826   -6.1372    2.3625 C   0  0  0  0  0  0  0  0  0  0  0  0
   -0.7227   -6.6661    2.6659 N   0  0  0  0  0  0  0  0  0  0  0  0
   -1.5130   -7.1271    1.5903 C   0  0  0  0  0  0  0  0  0  0  0  0
   -1.4041   -6.2088    3.8119 C   0  0  0  0  0  0  0  0  0  0  0  0
    1.4184   -6.0182    3.6115 C   0  0  0  0  0  0  0  0  0  0  0  0
    1.3234   -7.0732    1.4331 C   0  0  0  0  0  0  0  0  0  0  0  0
   -0.5312   -1.8567    1.0449 O   0  0  0  0  0  0  0  0  0  0  0  0
    0.6330   -1.1280   -1.2499 C   0  0  0  0  0  0  0  0  0  0  0  0
    1.9162   -0.5675   -1.6795 C   0  0  0  0  0  0  0  0  0  0  0  0
    4.9664   -1.3598   -2.6714 O   0  0  0  0  0  0  0  0  0  0  0  0
    2.8568    1.1324   -4.1855 C   0  0  0  0  0  0  0  0  0  0  0  0
    4.8629    2.3542   -2.0525 O   0  0  0  0  0  0  0  0  0  0  0  0
    7.8678    0.6317    0.0270 C   0  0  0  0  0  0  0  0  0  0  0  0
    6.9127   -0.5605    0.2347 C   0  0  0  0  0  0  0  0  0  0  0  0
    5.9854   -0.2015    1.3393 C   0  0  0  0  0  0  0  0  0  0  0  0
    5.1216   -1.2962    1.6817 N   0  0  0  0  0  0  0  0  0  0  0  0
    5.8262   -2.5593    1.9755 C   0  0  0  0  0  0  0  0  0  0  0  0
    6.8541   -2.8607    0.8766 C   0  0  0  0  0  0  0  0  0  0  0  0
    7.7138   -1.7025    0.6222 O   0  0  0  0  0  0  0  0  0  0  0  0
    9.1179    2.9442   -1.6686 O   0  0  0  0  0  0  0  0  0  0  0  0
    8.9544    5.1391    0.0952 C   0  0  0  0  0  0  0  0  0  0  0  0
    9.4214    5.4142    1.5392 C   0  0  0  0  0  0  0  0  0  0  0  0
    8.2701    5.3717    2.5496 C   0  0  0  0  0  0  0  0  0  0  0  0
    6.3342    4.3145    4.4633 O   0  0  0  0  0  0  0  0  0  0  0  0
    2.1039    0.5255    2.6990 C   0  0  0  0  0  0  0  0  0  0  0  0
    1.4171   -0.4242    3.4524 C   0  0  0  0  0  0  0  0  0  0  0  0
    1.9995   -1.7083    3.6533 C   0  0  0  0  0  0  0  0  0  0  0  0
    3.2288   -1.9587    3.0429 C   0  0  0  0  0  0  0  0  0  0  0  0
    3.8929   -1.0043    2.2845 C   0  0  0  0  0  0  0  0  0  0  0  0
    3.3263    0.2674    2.0973 C   0  0  0  0  0  0  0  0  0  0  0  0
    1.8366   -1.7013   -3.7908 F   0  0  0  0  0  0  0  0  0  0  0  0
  1  2  1  0  0  0  0
  2  3  1  0  0  0  0
  2  5  1  0  0  0  0
  3  4  1  0  0  0  0
  5  6  4  0  0  0  0
  5 10  4  0  0  0  0
  6  7  4  0  0  0  0
  7  8  4  0  0  0  0
  8  9  4  0  0  0  0
  9 10  4  0  0  0  0
 10 11  1  0  0  0  0
 11 12  4  0  0  0  0
 11 15  4  0  0  0  0
 12 13  1  0  0  0  0
 12 68  4  0  0  0  0
 13 14  1  0  0  0  0
 15 16  1  0  0  0  0
 15 67  4  0  0  0  0
 16 17  1  0  0  0  0
 17 18  1  0  0  0  0
 17 19  1  0  0  0  0
 17 20  1  0  0  0  0
 20 21  1  0  0  0  0
 21 22  1  0  0  0  0
 22 23  1  0  0  0  0
 22 66  2  0  0  0  0
 23 24  1  0  0  0  0
 23 65  1  0  0  0  0
 24 25  1  0  0  0  0
 25 26  1  0  0  0  0
 25 63  1  0  0  0  0
 26 27  1  0  0  0  0
 26 62  2  0  0  0  0
 27 28  1  0  0  0  0
 27 55  1  0  0  0  0
 28 29  1  0  0  0  0
 29 30  1  0  0  0  0
 29 54  2  0  0  0  0
 30 31  1  0  0  0  0
 30 34  1  0  0  0  0
 31 32  1  0  0  0  0
 31 33  1  0  0  0  0
 34 35  1  0  0  0  0
 34 53  1  0  0  0  0
 35 36  1  0  0  0  0
 35 52  2  0  0  0  0
 36 37  1  0  0  0  0
 36 51  1  0  0  0  0
 36 73  1  0  0  0  0
 37 38  1  0  0  0  0
 38 39  1  0  0  0  0
 39 40  1  0  0  0  0
 39 50  1  0  0  0  0
 40 41  1  0  0  0  0
 40 49  2  0  0  0  0
 41 42  1  0  0  0  0
 42 43  1  0  0  0  0
 43 44  1  0  0  0  0
 43 47  1  0  0  0  0
 43 48  1  0  0  0  0
 44 45  1  0  0  0  0
 44 46  1  0  0  0  0
 50 51  1  0  0  0  0
 55 56  1  0  0  0  0
 56 57  1  0  0  0  0
 56 61  1  0  0  0  0
 57 58  1  0  0  0  0
 58 59  1  0  0  0  0
 58 71  1  0  0  0  0
 59 60  1  0  0  0  0
 60 61  1  0  0  0  0
 63 64  1  0  0  0  0
 64 65  1  0  0  0  0
 67 68  4  0  0  0  0
 67 72  4  0  0  0  0
 68 69  4  0  0  0  0
 69 70  4  0  0  0  0
 70 71  4  0  0  0  0
 71 72  4  0  0  0  0
M  END
$$$$
