mol_ETKDG1_59
  PyMOL3.1          3D                             0

 73 79  0  0  0  0  0  0  0  0999 V2000
   -4.6225    0.8554   -4.0864 C   0  0  0  0  0  0  0  0  0  0  0  0
   -5.0503    0.1417   -2.8753 C   0  0  0  0  0  0  0  0  0  0  0  0
   -5.9262    0.8467   -2.0222 O   0  0  0  0  0  0  0  0  0  0  0  0
   -5.4372    1.9792   -1.3621 C   0  0  0  0  0  0  0  0  0  0  0  0
   -5.6827   -1.1572   -3.1605 C   0  0  0  0  0  0  0  0  0  0  0  0
   -6.9829   -1.1822   -3.3730 N   0  0  0  0  0  0  0  0  0  0  0  0
   -7.6243   -2.3306   -3.6589 C   0  0  0  0  0  0  0  0  0  0  0  0
   -6.9425   -3.5462   -3.7534 C   0  0  0  0  0  0  0  0  0  0  0  0
   -5.5565   -3.5453   -3.5515 C   0  0  0  0  0  0  0  0  0  0  0  0
   -4.9370   -2.3277   -3.2455 C   0  0  0  0  0  0  0  0  0  0  0  0
   -3.5138   -2.3275   -3.0027 C   0  0  0  0  0  0  0  0  0  0  0  0
   -2.5593   -2.3157   -3.9710 N   0  0  0  0  0  0  0  0  0  0  0  0
   -2.7643   -2.2810   -5.4514 C   0  0  0  0  0  0  0  0  0  0  0  0
   -2.5006   -3.5688   -6.0976 C   0  0  0  0  0  0  0  0  0  0  0  0
   -2.9167   -2.2630   -1.7251 C   0  0  0  0  0  0  0  0  0  0  0  0
   -3.5596   -2.1435   -0.3962 C   0  0  0  0  0  0  0  0  0  0  0  0
   -3.8593   -3.4671    0.3867 C   0  0  0  0  0  0  0  0  0  0  0  0
   -5.3384   -3.8256    0.2996 C   0  0  0  0  0  0  0  0  0  0  0  0
   -3.1036   -4.6431   -0.1165 C   0  0  0  0  0  0  0  0  0  0  0  0
   -3.5643   -3.0828    1.8186 C   0  0  0  0  0  0  0  0  0  0  0  0
   -2.1928   -3.3113    2.3542 O   0  0  0  0  0  0  0  0  0  0  0  0
   -2.0052   -4.0267    3.5764 C   0  0  0  0  0  0  0  0  0  0  0  0
   -0.8373   -3.6111    4.4578 C   0  0  0  0  0  0  0  0  0  0  0  0
   -0.7209   -2.1741    4.4088 N   0  0  0  0  0  0  0  0  0  0  0  0
    0.1689   -1.5556    5.2868 N   0  0  0  0  0  0  0  0  0  0  0  0
    1.1256   -0.6922    4.8525 C   0  0  0  0  0  0  0  0  0  0  0  0
    1.2904   -0.4792    3.3811 C   0  0  0  0  0  0  0  0  0  0  0  0
    1.5945    0.9084    3.0856 N   0  0  0  0  0  0  0  0  0  0  0  0
    0.6958    1.7782    2.6287 C   0  0  0  0  0  0  0  0  0  0  0  0
    1.2075    3.1366    2.2608 C   0  0  0  0  0  0  0  0  0  0  0  0
    0.9086    4.2540    3.3002 C   0  0  0  0  0  0  0  0  0  0  0  0
    1.7242    5.4833    3.0780 C   0  0  0  0  0  0  0  0  0  0  0  0
    0.8924    3.7929    4.7120 C   0  0  0  0  0  0  0  0  0  0  0  0
    0.6285    3.4569    0.9680 N   0  0  0  0  0  0  0  0  0  0  0  0
    1.2682    2.9982   -0.1461 C   0  0  0  0  0  0  0  0  0  0  0  0
    0.7525    3.2062   -1.5327 C   0  0  0  0  0  0  0  0  0  0  0  0
   -0.3198    2.1651   -1.7422 C   0  0  0  0  0  0  0  0  0  0  0  0
   -0.9673    2.3323   -3.0608 C   0  0  0  0  0  0  0  0  0  0  0  0
    0.0720    2.2887   -4.0886 N   0  0  0  0  0  0  0  0  0  0  0  0
   -0.0162    1.4100   -5.1154 C   0  0  0  0  0  0  0  0  0  0  0  0
    1.0617    1.2148   -5.9427 C   0  0  0  0  0  0  0  0  0  0  0  0
    1.8825    1.0713   -6.7193 C   0  0  0  0  0  0  0  0  0  0  0  0
    2.9935    1.0389   -7.5727 C   0  0  0  0  0  0  0  0  0  0  0  0
    2.7758    1.9568   -8.6495 N   0  0  0  0  0  0  0  0  0  0  0  0
    1.7476    1.7006   -9.5768 C   0  0  0  0  0  0  0  0  0  0  0  0
    3.4126    3.2062   -8.7084 C   0  0  0  0  0  0  0  0  0  0  0  0
    4.2419    1.3991   -6.7893 C   0  0  0  0  0  0  0  0  0  0  0  0
    3.2166   -0.3580   -8.1153 C   0  0  0  0  0  0  0  0  0  0  0  0
   -1.0464    0.7626   -5.3044 O   0  0  0  0  0  0  0  0  0  0  0  0
    1.1784    3.1999   -3.9458 C   0  0  0  0  0  0  0  0  0  0  0  0
    1.8202    3.0645   -2.6194 C   0  0  0  0  0  0  0  0  0  0  0  0
    2.3235    2.3460    0.0038 O   0  0  0  0  0  0  0  0  0  0  0  0
   -0.6744    4.1513    0.9208 C   0  0  0  0  0  0  0  0  0  0  0  0
   -0.4461    1.4085    2.4089 O   0  0  0  0  0  0  0  0  0  0  0  0
    2.4659   -1.3915    2.8656 C   0  0  0  0  0  0  0  0  0  0  0  0
    2.7427   -1.2724    1.3507 C   0  0  0  0  0  0  0  0  0  0  0  0
    1.6895   -2.0476    0.6515 C   0  0  0  0  0  0  0  0  0  0  0  0
    1.9192   -2.0882   -0.7658 N   0  0  0  0  0  0  0  0  0  0  0  0
    3.2632   -2.5163   -1.1702 C   0  0  0  0  0  0  0  0  0  0  0  0
    4.3427   -1.8197   -0.3390 C   0  0  0  0  0  0  0  0  0  0  0  0
    4.0382   -1.8743    1.0949 O   0  0  0  0  0  0  0  0  0  0  0  0
    1.8970   -0.1189    5.6359 O   0  0  0  0  0  0  0  0  0  0  0  0
   -0.0363   -1.8327    6.6978 C   0  0  0  0  0  0  0  0  0  0  0  0
   -0.1032   -3.3560    6.8948 C   0  0  0  0  0  0  0  0  0  0  0  0
   -1.0879   -4.0092    5.9474 C   0  0  0  0  0  0  0  0  0  0  0  0
   -2.6983   -5.0066    3.9324 O   0  0  0  0  0  0  0  0  0  0  0  0
   -1.5302   -2.2640   -1.9937 C   0  0  0  0  0  0  0  0  0  0  0  0
   -1.3562   -2.2963   -3.3726 C   0  0  0  0  0  0  0  0  0  0  0  0
   -0.0276   -2.2618   -3.9129 C   0  0  0  0  0  0  0  0  0  0  0  0
    1.0298   -2.1978   -3.0089 C   0  0  0  0  0  0  0  0  0  0  0  0
    0.8298   -2.1667   -1.6310 C   0  0  0  0  0  0  0  0  0  0  0  0
   -0.4708   -2.1978   -1.1022 C   0  0  0  0  0  0  0  0  0  0  0  0
    0.2839    4.4909   -1.6776 F   0  0  0  0  0  0  0  0  0  0  0  0
  1  2  1  0  0  0  0
  2  3  1  0  0  0  0
  2  5  1  0  0  0  0
  3  4  1  0  0  0  0
  5  6  4  0  0  0  0
  5 10  4  0  0  0  0
  6  7  4  0  0  0  0
  7  8  4  0  0  0  0
  8  9  4  0  0  0  0
  9 10  4  0  0  0  0
 10 11  1  0  0  0  0
 11 12  4  0  0  0  0
 11 15  4  0  0  0  0
 12 13  1  0  0  0  0
 12 68  4  0  0  0  0
 13 14  1  0  0  0  0
 15 16  1  0  0  0  0
 15 67  4  0  0  0  0
 16 17  1  0  0  0  0
 17 18  1  0  0  0  0
 17 19  1  0  0  0  0
 17 20  1  0  0  0  0
 20 21  1  0  0  0  0
 21 22  1  0  0  0  0
 22 23  1  0  0  0  0
 22 66  2  0  0  0  0
 23 24  1  0  0  0  0
 23 65  1  0  0  0  0
 24 25  1  0  0  0  0
 25 26  1  0  0  0  0
 25 63  1  0  0  0  0
 26 27  1  0  0  0  0
 26 62  2  0  0  0  0
 27 28  1  0  0  0  0
 27 55  1  0  0  0  0
 28 29  1  0  0  0  0
 29 30  1  0  0  0  0
 29 54  2  0  0  0  0
 30 31  1  0  0  0  0
 30 34  1  0  0  0  0
 31 32  1  0  0  0  0
 31 33  1  0  0  0  0
 34 35  1  0  0  0  0
 34 53  1  0  0  0  0
 35 36  1  0  0  0  0
 35 52  2  0  0  0  0
 36 37  1  0  0  0  0
 36 51  1  0  0  0  0
 36 73  1  0  0  0  0
 37 38  1  0  0  0  0
 38 39  1  0  0  0  0
 39 40  1  0  0  0  0
 39 50  1  0  0  0  0
 40 41  1  0  0  0  0
 40 49  2  0  0  0  0
 41 42  1  0  0  0  0
 42 43  1  0  0  0  0
 43 44  1  0  0  0  0
 43 47  1  0  0  0  0
 43 48  1  0  0  0  0
 44 45  1  0  0  0  0
 44 46  1  0  0  0  0
 50 51  1  0  0  0  0
 55 56  1  0  0  0  0
 56 57  1  0  0  0  0
 56 61  1  0  0  0  0
 57 58  1  0  0  0  0
 58 59  1  0  0  0  0
 58 71  1  0  0  0  0
 59 60  1  0  0  0  0
 60 61  1  0  0  0  0
 63 64  1  0  0  0  0
 64 65  1  0  0  0  0
 67 68  4  0  0  0  0
 67 72  4  0  0  0  0
 68 69  4  0  0  0  0
 69 70  4  0  0  0  0
 70 71  4  0  0  0  0
 71 72  4  0  0  0  0
M  END
$$$$
