mol_ETKDG2_139
  PyMOL3.1          3D                             0

 73 79  0  0  0  0  0  0  0  0999 V2000
   -2.1128    5.1925    0.8587 C   0  0  0  0  0  0  0  0  0  0  0  0
   -2.7437    3.9138    0.4562 C   0  0  0  0  0  0  0  0  0  0  0  0
   -3.6346    3.3589    1.4068 O   0  0  0  0  0  0  0  0  0  0  0  0
   -3.0811    2.8033    2.5760 C   0  0  0  0  0  0  0  0  0  0  0  0
   -3.4944    4.0215   -0.8129 C   0  0  0  0  0  0  0  0  0  0  0  0
   -4.6128    4.7311   -0.8123 N   0  0  0  0  0  0  0  0  0  0  0  0
   -5.3304    4.9110   -1.9441 C   0  0  0  0  0  0  0  0  0  0  0  0
   -4.9187    4.3686   -3.1678 C   0  0  0  0  0  0  0  0  0  0  0  0
   -3.7316    3.6265   -3.1937 C   0  0  0  0  0  0  0  0  0  0  0  0
   -3.0337    3.4315   -1.9850 C   0  0  0  0  0  0  0  0  0  0  0  0
   -1.8328    2.6254   -2.0133 C   0  0  0  0  0  0  0  0  0  0  0  0
   -0.6228    3.1112   -2.3916 N   0  0  0  0  0  0  0  0  0  0  0  0
   -0.2931    4.5295   -2.7792 C   0  0  0  0  0  0  0  0  0  0  0  0
   -0.0189    4.6982   -4.2032 C   0  0  0  0  0  0  0  0  0  0  0  0
   -1.7156    1.2660   -1.5981 C   0  0  0  0  0  0  0  0  0  0  0  0
   -2.7263    0.3294   -0.9653 C   0  0  0  0  0  0  0  0  0  0  0  0
   -3.6211   -0.5263   -1.9622 C   0  0  0  0  0  0  0  0  0  0  0  0
   -4.7113   -1.2025   -1.1371 C   0  0  0  0  0  0  0  0  0  0  0  0
   -4.3461    0.3129   -2.9447 C   0  0  0  0  0  0  0  0  0  0  0  0
   -2.7962   -1.5564   -2.7112 C   0  0  0  0  0  0  0  0  0  0  0  0
   -2.4551   -2.8116   -1.9566 O   0  0  0  0  0  0  0  0  0  0  0  0
   -2.6680   -4.1371   -2.4565 C   0  0  0  0  0  0  0  0  0  0  0  0
   -2.1964   -5.3238   -1.6403 C   0  0  0  0  0  0  0  0  0  0  0  0
   -1.8715   -4.9379   -0.2955 N   0  0  0  0  0  0  0  0  0  0  0  0
   -1.4233   -5.9520    0.5586 N   0  0  0  0  0  0  0  0  0  0  0  0
   -0.2262   -5.8510    1.2251 C   0  0  0  0  0  0  0  0  0  0  0  0
    0.5857   -4.5950    1.0782 C   0  0  0  0  0  0  0  0  0  0  0  0
    1.1560   -4.1934    2.3491 N   0  0  0  0  0  0  0  0  0  0  0  0
    0.6118   -3.2311    3.1178 C   0  0  0  0  0  0  0  0  0  0  0  0
    1.3799   -2.8230    4.3393 C   0  0  0  0  0  0  0  0  0  0  0  0
    0.8827   -3.4449    5.6880 C   0  0  0  0  0  0  0  0  0  0  0  0
    1.8867   -3.2899    6.7879 C   0  0  0  0  0  0  0  0  0  0  0  0
    0.3608   -4.8354    5.5633 C   0  0  0  0  0  0  0  0  0  0  0  0
    1.3345   -1.3605    4.3853 N   0  0  0  0  0  0  0  0  0  0  0  0
    2.2457   -0.6584    3.6295 C   0  0  0  0  0  0  0  0  0  0  0  0
    2.2996    0.8433    3.5241 C   0  0  0  0  0  0  0  0  0  0  0  0
    1.1910    1.2628    2.5835 C   0  0  0  0  0  0  0  0  0  0  0  0
    1.1562    2.7485    2.4231 C   0  0  0  0  0  0  0  0  0  0  0  0
    2.4749    3.1802    1.9413 N   0  0  0  0  0  0  0  0  0  0  0  0
    2.5811    3.8719    0.7692 C   0  0  0  0  0  0  0  0  0  0  0  0
    3.7933    4.0124    0.0978 C   0  0  0  0  0  0  0  0  0  0  0  0
    4.7316    4.2512   -0.5397 C   0  0  0  0  0  0  0  0  0  0  0  0
    5.9405    4.4744   -1.2128 C   0  0  0  0  0  0  0  0  0  0  0  0
    6.1932    5.8774   -1.2785 N   0  0  0  0  0  0  0  0  0  0  0  0
    7.2336    6.4884   -0.5661 C   0  0  0  0  0  0  0  0  0  0  0  0
    5.2882    6.7289   -1.9636 C   0  0  0  0  0  0  0  0  0  0  0  0
    7.0448    3.7229   -0.4827 C   0  0  0  0  0  0  0  0  0  0  0  0
    5.9012    3.9048   -2.6263 C   0  0  0  0  0  0  0  0  0  0  0  0
    1.5739    4.3599    0.2524 O   0  0  0  0  0  0  0  0  0  0  0  0
    3.6107    2.8023    2.7441 C   0  0  0  0  0  0  0  0  0  0  0  0
    3.6489    1.3413    2.9738 C   0  0  0  0  0  0  0  0  0  0  0  0
    3.0727   -1.3240    2.9733 O   0  0  0  0  0  0  0  0  0  0  0  0
    0.2500   -0.6969    5.1318 C   0  0  0  0  0  0  0  0  0  0  0  0
   -0.3961   -2.6522    2.7392 O   0  0  0  0  0  0  0  0  0  0  0  0
    1.7438   -4.7753    0.0140 C   0  0  0  0  0  0  0  0  0  0  0  0
    2.5600   -3.4728   -0.2716 C   0  0  0  0  0  0  0  0  0  0  0  0
    1.7508   -2.6155   -1.1832 C   0  0  0  0  0  0  0  0  0  0  0  0
    2.4510   -1.4189   -1.5832 N   0  0  0  0  0  0  0  0  0  0  0  0
    3.8027   -1.6379   -2.1202 C   0  0  0  0  0  0  0  0  0  0  0  0
    4.5919   -2.6423   -1.2561 C   0  0  0  0  0  0  0  0  0  0  0  0
    3.7993   -3.8401   -0.9344 O   0  0  0  0  0  0  0  0  0  0  0  0
    0.2055   -6.7747    1.9381 O   0  0  0  0  0  0  0  0  0  0  0  0
   -2.3504   -7.0706    0.7375 C   0  0  0  0  0  0  0  0  0  0  0  0
   -2.7899   -7.5942   -0.6483 C   0  0  0  0  0  0  0  0  0  0  0  0
   -3.2572   -6.4663   -1.5734 C   0  0  0  0  0  0  0  0  0  0  0  0
   -3.2293   -4.3910   -3.5474 O   0  0  0  0  0  0  0  0  0  0  0  0
   -0.3520    0.9696   -1.8186 C   0  0  0  0  0  0  0  0  0  0  0  0
    0.2760    2.1192   -2.2966 C   0  0  0  0  0  0  0  0  0  0  0  0
    1.6856    2.0944   -2.5635 C   0  0  0  0  0  0  0  0  0  0  0  0
    2.3725    0.9065   -2.3087 C   0  0  0  0  0  0  0  0  0  0  0  0
    1.7289   -0.2403   -1.8265 C   0  0  0  0  0  0  0  0  0  0  0  0
    0.3399   -0.2156   -1.5704 C   0  0  0  0  0  0  0  0  0  0  0  0
    2.1649    1.4319    4.7685 F   0  0  0  0  0  0  0  0  0  0  0  0
  1  2  1  0  0  0  0
  2  3  1  0  0  0  0
  2  5  1  0  0  0  0
  3  4  1  0  0  0  0
  5  6  4  0  0  0  0
  5 10  4  0  0  0  0
  6  7  4  0  0  0  0
  7  8  4  0  0  0  0
  8  9  4  0  0  0  0
  9 10  4  0  0  0  0
 10 11  1  0  0  0  0
 11 12  4  0  0  0  0
 11 15  4  0  0  0  0
 12 13  1  0  0  0  0
 12 68  4  0  0  0  0
 13 14  1  0  0  0  0
 15 16  1  0  0  0  0
 15 67  4  0  0  0  0
 16 17  1  0  0  0  0
 17 18  1  0  0  0  0
 17 19  1  0  0  0  0
 17 20  1  0  0  0  0
 20 21  1  0  0  0  0
 21 22  1  0  0  0  0
 22 23  1  0  0  0  0
 22 66  2  0  0  0  0
 23 24  1  0  0  0  0
 23 65  1  0  0  0  0
 24 25  1  0  0  0  0
 25 26  1  0  0  0  0
 25 63  1  0  0  0  0
 26 27  1  0  0  0  0
 26 62  2  0  0  0  0
 27 28  1  0  0  0  0
 27 55  1  0  0  0  0
 28 29  1  0  0  0  0
 29 30  1  0  0  0  0
 29 54  2  0  0  0  0
 30 31  1  0  0  0  0
 30 34  1  0  0  0  0
 31 32  1  0  0  0  0
 31 33  1  0  0  0  0
 34 35  1  0  0  0  0
 34 53  1  0  0  0  0
 35 36  1  0  0  0  0
 35 52  2  0  0  0  0
 36 37  1  0  0  0  0
 36 51  1  0  0  0  0
 36 73  1  0  0  0  0
 37 38  1  0  0  0  0
 38 39  1  0  0  0  0
 39 40  1  0  0  0  0
 39 50  1  0  0  0  0
 40 41  1  0  0  0  0
 40 49  2  0  0  0  0
 41 42  1  0  0  0  0
 42 43  1  0  0  0  0
 43 44  1  0  0  0  0
 43 47  1  0  0  0  0
 43 48  1  0  0  0  0
 44 45  1  0  0  0  0
 44 46  1  0  0  0  0
 50 51  1  0  0  0  0
 55 56  1  0  0  0  0
 56 57  1  0  0  0  0
 56 61  1  0  0  0  0
 57 58  1  0  0  0  0
 58 59  1  0  0  0  0
 58 71  1  0  0  0  0
 59 60  1  0  0  0  0
 60 61  1  0  0  0  0
 63 64  1  0  0  0  0
 64 65  1  0  0  0  0
 67 68  4  0  0  0  0
 67 72  4  0  0  0  0
 68 69  4  0  0  0  0
 69 70  4  0  0  0  0
 70 71  4  0  0  0  0
 71 72  4  0  0  0  0
M  END
$$$$
