mol_ETKDG1_70
  PyMOL3.1          3D                             0

 73 79  0  0  0  0  0  0  0  0999 V2000
    4.8722    0.2642   -5.6360 C   0  0  0  0  0  0  0  0  0  0  0  0
    4.4497   -1.0629   -5.1300 C   0  0  0  0  0  0  0  0  0  0  0  0
    3.8172   -1.8968   -6.0815 O   0  0  0  0  0  0  0  0  0  0  0  0
    2.4980   -1.5929   -6.4482 C   0  0  0  0  0  0  0  0  0  0  0  0
    5.5641   -1.8341   -4.5463 C   0  0  0  0  0  0  0  0  0  0  0  0
    6.4382   -2.3737   -5.3785 N   0  0  0  0  0  0  0  0  0  0  0  0
    7.5095   -3.0600   -4.9265 C   0  0  0  0  0  0  0  0  0  0  0  0
    7.7501   -3.2199   -3.5552 C   0  0  0  0  0  0  0  0  0  0  0  0
    6.8422   -2.6441   -2.6510 C   0  0  0  0  0  0  0  0  0  0  0  0
    5.7231   -1.9649   -3.1622 C   0  0  0  0  0  0  0  0  0  0  0  0
    4.7602   -1.4115   -2.2281 C   0  0  0  0  0  0  0  0  0  0  0  0
    4.9084   -0.1961   -1.6385 N   0  0  0  0  0  0  0  0  0  0  0  0
    6.0346    0.7824   -1.8342 C   0  0  0  0  0  0  0  0  0  0  0  0
    6.9119    0.9189   -0.6741 C   0  0  0  0  0  0  0  0  0  0  0  0
    3.5053   -1.9985   -1.8589 C   0  0  0  0  0  0  0  0  0  0  0  0
    2.8482   -3.2885   -2.2981 C   0  0  0  0  0  0  0  0  0  0  0  0
    3.1014   -4.5656   -1.3643 C   0  0  0  0  0  0  0  0  0  0  0  0
    4.5475   -4.7228   -0.9735 C   0  0  0  0  0  0  0  0  0  0  0  0
    2.7444   -5.7926   -2.1698 C   0  0  0  0  0  0  0  0  0  0  0  0
    2.3031   -4.5082   -0.0649 C   0  0  0  0  0  0  0  0  0  0  0  0
    0.8393   -4.8275   -0.0746 O   0  0  0  0  0  0  0  0  0  0  0  0
    0.2078   -5.7521    0.8329 C   0  0  0  0  0  0  0  0  0  0  0  0
   -1.3058   -5.8302    0.8827 C   0  0  0  0  0  0  0  0  0  0  0  0
   -1.8995   -5.1744   -0.2350 N   0  0  0  0  0  0  0  0  0  0  0  0
   -3.2877   -5.1661   -0.3421 N   0  0  0  0  0  0  0  0  0  0  0  0
   -3.9801   -3.9923   -0.5328 C   0  0  0  0  0  0  0  0  0  0  0  0
   -3.2112   -2.6976   -0.6274 C   0  0  0  0  0  0  0  0  0  0  0  0
   -3.7786   -1.8180   -1.6330 N   0  0  0  0  0  0  0  0  0  0  0  0
   -3.2960   -1.7300   -2.8912 C   0  0  0  0  0  0  0  0  0  0  0  0
   -3.8940   -0.6653   -3.7663 C   0  0  0  0  0  0  0  0  0  0  0  0
   -4.8818   -1.1851   -4.8670 C   0  0  0  0  0  0  0  0  0  0  0  0
   -5.6449   -0.0750   -5.5231 C   0  0  0  0  0  0  0  0  0  0  0  0
   -5.7732   -2.2888   -4.3890 C   0  0  0  0  0  0  0  0  0  0  0  0
   -2.7696    0.0784   -4.3460 N   0  0  0  0  0  0  0  0  0  0  0  0
   -2.2030    1.0899   -3.6098 C   0  0  0  0  0  0  0  0  0  0  0  0
   -1.0125    1.9163   -4.0424 C   0  0  0  0  0  0  0  0  0  0  0  0
    0.2293    1.0872   -3.8055 C   0  0  0  0  0  0  0  0  0  0  0  0
    1.4489    1.8131   -4.2375 C   0  0  0  0  0  0  0  0  0  0  0  0
    1.5226    3.1158   -3.5609 N   0  0  0  0  0  0  0  0  0  0  0  0
    2.6730    3.5031   -2.9280 C   0  0  0  0  0  0  0  0  0  0  0  0
    2.6645    4.4951   -1.9487 C   0  0  0  0  0  0  0  0  0  0  0  0
    2.7582    5.3394   -1.1509 C   0  0  0  0  0  0  0  0  0  0  0  0
    2.6768    6.3901   -0.2149 C   0  0  0  0  0  0  0  0  0  0  0  0
    2.5340    7.6495   -0.8817 N   0  0  0  0  0  0  0  0  0  0  0  0
    3.4791    7.9982   -1.8765 C   0  0  0  0  0  0  0  0  0  0  0  0
    1.8034    8.7159   -0.3186 C   0  0  0  0  0  0  0  0  0  0  0  0
    3.9260    6.4217    0.6520 C   0  0  0  0  0  0  0  0  0  0  0  0
    1.4953    6.1331    0.7050 C   0  0  0  0  0  0  0  0  0  0  0  0
    3.7371    2.9436   -3.1930 O   0  0  0  0  0  0  0  0  0  0  0  0
    0.3471    3.9427   -3.6022 C   0  0  0  0  0  0  0  0  0  0  0  0
   -0.8880    3.2277   -3.2485 C   0  0  0  0  0  0  0  0  0  0  0  0
   -2.7026    1.3260   -2.4891 O   0  0  0  0  0  0  0  0  0  0  0  0
   -2.2041   -0.3689   -5.6350 C   0  0  0  0  0  0  0  0  0  0  0  0
   -2.3399   -2.4084   -3.2257 O   0  0  0  0  0  0  0  0  0  0  0  0
   -3.1763   -1.9612    0.7760 C   0  0  0  0  0  0  0  0  0  0  0  0
   -2.2948   -0.6745    0.8240 C   0  0  0  0  0  0  0  0  0  0  0  0
   -0.8556   -1.0873    0.8546 C   0  0  0  0  0  0  0  0  0  0  0  0
    0.0443    0.0425    1.0161 N   0  0  0  0  0  0  0  0  0  0  0  0
   -0.2761    0.9403    2.1251 C   0  0  0  0  0  0  0  0  0  0  0  0
   -1.7831    1.2561    2.1744 C   0  0  0  0  0  0  0  0  0  0  0  0
   -2.6054    0.0408    2.0490 O   0  0  0  0  0  0  0  0  0  0  0  0
   -5.2183   -3.9767   -0.5982 O   0  0  0  0  0  0  0  0  0  0  0  0
   -3.9330   -6.4798   -0.3046 C   0  0  0  0  0  0  0  0  0  0  0  0
   -3.3833   -7.3084    0.8731 C   0  0  0  0  0  0  0  0  0  0  0  0
   -1.8550   -7.2824    0.9573 C   0  0  0  0  0  0  0  0  0  0  0  0
    0.8360   -6.5236    1.5877 O   0  0  0  0  0  0  0  0  0  0  0  0
    2.9377   -1.0441   -0.9866 C   0  0  0  0  0  0  0  0  0  0  0  0
    3.8196    0.0315   -0.8764 C   0  0  0  0  0  0  0  0  0  0  0  0
    3.4491    1.1551   -0.0613 C   0  0  0  0  0  0  0  0  0  0  0  0
    2.1916    1.1243    0.5549 C   0  0  0  0  0  0  0  0  0  0  0  0
    1.3118    0.0346    0.4132 C   0  0  0  0  0  0  0  0  0  0  0  0
    1.6930   -1.0677   -0.3632 C   0  0  0  0  0  0  0  0  0  0  0  0
   -1.1311    2.2978   -5.3718 F   0  0  0  0  0  0  0  0  0  0  0  0
  1  2  1  0  0  0  0
  2  3  1  0  0  0  0
  2  5  1  0  0  0  0
  3  4  1  0  0  0  0
  5  6  4  0  0  0  0
  5 10  4  0  0  0  0
  6  7  4  0  0  0  0
  7  8  4  0  0  0  0
  8  9  4  0  0  0  0
  9 10  4  0  0  0  0
 10 11  1  0  0  0  0
 11 12  4  0  0  0  0
 11 15  4  0  0  0  0
 12 13  1  0  0  0  0
 12 68  4  0  0  0  0
 13 14  1  0  0  0  0
 15 16  1  0  0  0  0
 15 67  4  0  0  0  0
 16 17  1  0  0  0  0
 17 18  1  0  0  0  0
 17 19  1  0  0  0  0
 17 20  1  0  0  0  0
 20 21  1  0  0  0  0
 21 22  1  0  0  0  0
 22 23  1  0  0  0  0
 22 66  2  0  0  0  0
 23 24  1  0  0  0  0
 23 65  1  0  0  0  0
 24 25  1  0  0  0  0
 25 26  1  0  0  0  0
 25 63  1  0  0  0  0
 26 27  1  0  0  0  0
 26 62  2  0  0  0  0
 27 28  1  0  0  0  0
 27 55  1  0  0  0  0
 28 29  1  0  0  0  0
 29 30  1  0  0  0  0
 29 54  2  0  0  0  0
 30 31  1  0  0  0  0
 30 34  1  0  0  0  0
 31 32  1  0  0  0  0
 31 33  1  0  0  0  0
 34 35  1  0  0  0  0
 34 53  1  0  0  0  0
 35 36  1  0  0  0  0
 35 52  2  0  0  0  0
 36 37  1  0  0  0  0
 36 51  1  0  0  0  0
 36 73  1  0  0  0  0
 37 38  1  0  0  0  0
 38 39  1  0  0  0  0
 39 40  1  0  0  0  0
 39 50  1  0  0  0  0
 40 41  1  0  0  0  0
 40 49  2  0  0  0  0
 41 42  1  0  0  0  0
 42 43  1  0  0  0  0
 43 44  1  0  0  0  0
 43 47  1  0  0  0  0
 43 48  1  0  0  0  0
 44 45  1  0  0  0  0
 44 46  1  0  0  0  0
 50 51  1  0  0  0  0
 55 56  1  0  0  0  0
 56 57  1  0  0  0  0
 56 61  1  0  0  0  0
 57 58  1  0  0  0  0
 58 59  1  0  0  0  0
 58 71  1  0  0  0  0
 59 60  1  0  0  0  0
 60 61  1  0  0  0  0
 63 64  1  0  0  0  0
 64 65  1  0  0  0  0
 67 68  4  0  0  0  0
 67 72  4  0  0  0  0
 68 69  4  0  0  0  0
 69 70  4  0  0  0  0
 70 71  4  0  0  0  0
 71 72  4  0  0  0  0
M  END
$$$$
