mol_bioactive_19
  PyMOL3.1          3D                             0

 73 79  0  0  0  0  0  0  0  0999 V2000
    1.3358    7.1713   -3.2417 C   0  0  0  0  0  0  0  0  0  0  0  0
    0.4368    6.3442   -4.1125 C   0  0  0  0  0  0  0  0  0  0  0  0
   -0.2716    5.4134   -3.4052 O   0  0  0  0  0  0  0  0  0  0  0  0
   -1.3081    5.9838   -2.6044 C   0  0  0  0  0  0  0  0  0  0  0  0
    1.1073    5.7037   -5.2469 C   0  0  0  0  0  0  0  0  0  0  0  0
    1.2875    6.5977   -6.2068 N   0  0  0  0  0  0  0  0  0  0  0  0
    1.8292    6.2780   -7.3638 C   0  0  0  0  0  0  0  0  0  0  0  0
    2.2310    5.0015   -7.6340 C   0  0  0  0  0  0  0  0  0  0  0  0
    2.0759    4.0359   -6.6476 C   0  0  0  0  0  0  0  0  0  0  0  0
    1.5046    4.3788   -5.4299 C   0  0  0  0  0  0  0  0  0  0  0  0
    1.3205    3.3261   -4.4301 C   0  0  0  0  0  0  0  0  0  0  0  0
    2.0035    3.2164   -3.2733 N   0  0  0  0  0  0  0  0  0  0  0  0
    3.1377    4.0789   -2.8193 C   0  0  0  0  0  0  0  0  0  0  0  0
    4.4582    3.4168   -3.0575 C   0  0  0  0  0  0  0  0  0  0  0  0
    0.4248    2.2415   -4.5211 C   0  0  0  0  0  0  0  0  0  0  0  0
   -0.4089    1.8559   -5.6240 C   0  0  0  0  0  0  0  0  0  0  0  0
   -1.8651    2.2011   -5.7198 C   0  0  0  0  0  0  0  0  0  0  0  0
   -2.1271    3.2588   -6.7872 C   0  0  0  0  0  0  0  0  0  0  0  0
   -2.5198    2.6584   -4.4778 C   0  0  0  0  0  0  0  0  0  0  0  0
   -2.3308    1.0078   -6.1449 C   0  0  0  0  0  0  0  0  0  0  0  0
   -3.1716    0.0072   -5.4069 O   0  0  0  0  0  0  0  0  0  0  0  0
   -3.7807   -1.0769   -6.0886 C   0  0  0  0  0  0  0  0  0  0  0  0
   -4.6528   -2.0186   -5.3638 C   0  0  0  0  0  0  0  0  0  0  0  0
   -5.2439   -1.4597   -4.1835 N   0  0  0  0  0  0  0  0  0  0  0  0
   -6.1448   -2.2794   -3.5031 N   0  0  0  0  0  0  0  0  0  0  0  0
   -6.0042   -2.5688   -2.1882 C   0  0  0  0  0  0  0  0  0  0  0  0
   -4.8475   -2.0153   -1.3974 C   0  0  0  0  0  0  0  0  0  0  0  0
   -5.2848   -1.7405   -0.0278 N   0  0  0  0  0  0  0  0  0  0  0  0
   -5.6685   -0.5634    0.4374 C   0  0  0  0  0  0  0  0  0  0  0  0
   -6.1139   -0.5060    1.8455 C   0  0  0  0  0  0  0  0  0  0  0  0
   -7.6542   -0.3338    1.9626 C   0  0  0  0  0  0  0  0  0  0  0  0
   -8.1390    0.0358    3.3042 C   0  0  0  0  0  0  0  0  0  0  0  0
   -8.3824   -1.5245    1.4006 C   0  0  0  0  0  0  0  0  0  0  0  0
   -5.3973    0.5200    2.5580 N   0  0  0  0  0  0  0  0  0  0  0  0
   -4.4900    0.1389    3.4920 C   0  0  0  0  0  0  0  0  0  0  0  0
   -3.7215    1.0941    4.3463 C   0  0  0  0  0  0  0  0  0  0  0  0
   -4.6575    1.9169    5.1785 C   0  0  0  0  0  0  0  0  0  0  0  0
   -3.9323    2.9563    5.8724 C   0  0  0  0  0  0  0  0  0  0  0  0
   -2.9031    2.3656    6.6994 N   0  0  0  0  0  0  0  0  0  0  0  0
   -2.7984    2.8050    7.9670 C   0  0  0  0  0  0  0  0  0  0  0  0
   -1.9057    2.2523    8.8526 C   0  0  0  0  0  0  0  0  0  0  0  0
   -1.1845    1.9491    9.6667 C   0  0  0  0  0  0  0  0  0  0  0  0
   -0.1373    1.4372   10.4579 C   0  0  0  0  0  0  0  0  0  0  0  0
    1.0257    2.2065   10.1879 N   0  0  0  0  0  0  0  0  0  0  0  0
    0.9829    3.5875   10.4124 C   0  0  0  0  0  0  0  0  0  0  0  0
    2.2102    1.6543    9.7200 C   0  0  0  0  0  0  0  0  0  0  0  0
    0.0486   -0.0180   10.1335 C   0  0  0  0  0  0  0  0  0  0  0  0
   -0.4663    1.5199   11.9176 C   0  0  0  0  0  0  0  0  0  0  0  0
   -3.5203    3.7211    8.3564 O   0  0  0  0  0  0  0  0  0  0  0  0
   -2.0484    1.3801    6.1031 C   0  0  0  0  0  0  0  0  0  0  0  0
   -2.7433    0.4108    5.3066 C   0  0  0  0  0  0  0  0  0  0  0  0
   -4.3002   -1.0705    3.6452 O   0  0  0  0  0  0  0  0  0  0  0  0
   -5.6410    1.9230    2.2156 C   0  0  0  0  0  0  0  0  0  0  0  0
   -5.5499    0.3995   -0.2734 O   0  0  0  0  0  0  0  0  0  0  0  0
   -3.7292   -3.0856   -1.4199 C   0  0  0  0  0  0  0  0  0  0  0  0
   -2.2499   -2.8679   -1.2533 C   0  0  0  0  0  0  0  0  0  0  0  0
   -1.7944   -1.4899   -1.4306 C   0  0  0  0  0  0  0  0  0  0  0  0
   -0.4018   -1.3027   -1.1592 N   0  0  0  0  0  0  0  0  0  0  0  0
    0.3133   -2.2612   -0.3942 C   0  0  0  0  0  0  0  0  0  0  0  0
   -0.4223   -3.4253    0.1409 C   0  0  0  0  0  0  0  0  0  0  0  0
   -1.8530   -3.4217   -0.0090 O   0  0  0  0  0  0  0  0  0  0  0  0
   -6.7916   -3.3452   -1.6224 O   0  0  0  0  0  0  0  0  0  0  0  0
   -7.2709   -2.7633   -4.2857 C   0  0  0  0  0  0  0  0  0  0  0  0
   -6.7525   -3.4123   -5.5678 C   0  0  0  0  0  0  0  0  0  0  0  0
   -5.7624   -2.5462   -6.2885 C   0  0  0  0  0  0  0  0  0  0  0  0
   -3.6773   -1.3864   -7.3293 O   0  0  0  0  0  0  0  0  0  0  0  0
    0.5930    1.5044   -3.3344 C   0  0  0  0  0  0  0  0  0  0  0  0
    1.5716    2.1279   -2.6032 C   0  0  0  0  0  0  0  0  0  0  0  0
    1.9484    1.5700   -1.3375 C   0  0  0  0  0  0  0  0  0  0  0  0
    1.2785    0.4244   -0.9002 C   0  0  0  0  0  0  0  0  0  0  0  0
    0.2614   -0.1753   -1.6413 C   0  0  0  0  0  0  0  0  0  0  0  0
   -0.0882    0.3616   -2.8928 C   0  0  0  0  0  0  0  0  0  0  0  0
   -2.9564    1.8972    3.5418 F   0  0  0  0  0  0  0  0  0  0  0  0
  1  2  1  0  0  0  0
  2  3  1  0  0  0  0
  2  5  1  0  0  0  0
  3  4  1  0  0  0  0
  5  6  4  0  0  0  0
  5 10  4  0  0  0  0
  6  7  4  0  0  0  0
  7  8  4  0  0  0  0
  8  9  4  0  0  0  0
  9 10  4  0  0  0  0
 10 11  1  0  0  0  0
 11 12  4  0  0  0  0
 11 15  4  0  0  0  0
 12 13  1  0  0  0  0
 12 68  4  0  0  0  0
 13 14  1  0  0  0  0
 15 16  1  0  0  0  0
 15 67  4  0  0  0  0
 16 17  1  0  0  0  0
 17 18  1  0  0  0  0
 17 19  1  0  0  0  0
 17 20  1  0  0  0  0
 20 21  1  0  0  0  0
 21 22  1  0  0  0  0
 22 23  1  0  0  0  0
 22 66  2  0  0  0  0
 23 24  1  0  0  0  0
 23 65  1  0  0  0  0
 24 25  1  0  0  0  0
 25 26  1  0  0  0  0
 25 63  1  0  0  0  0
 26 27  1  0  0  0  0
 26 62  2  0  0  0  0
 27 28  1  0  0  0  0
 27 55  1  0  0  0  0
 28 29  1  0  0  0  0
 29 30  1  0  0  0  0
 29 54  2  0  0  0  0
 30 31  1  0  0  0  0
 30 34  1  0  0  0  0
 31 32  1  0  0  0  0
 31 33  1  0  0  0  0
 34 35  1  0  0  0  0
 34 53  1  0  0  0  0
 35 36  1  0  0  0  0
 35 52  2  0  0  0  0
 36 37  1  0  0  0  0
 36 51  1  0  0  0  0
 36 73  1  0  0  0  0
 37 38  1  0  0  0  0
 38 39  1  0  0  0  0
 39 40  1  0  0  0  0
 39 50  1  0  0  0  0
 40 41  1  0  0  0  0
 40 49  2  0  0  0  0
 41 42  1  0  0  0  0
 42 43  1  0  0  0  0
 43 44  1  0  0  0  0
 43 47  1  0  0  0  0
 43 48  1  0  0  0  0
 44 45  1  0  0  0  0
 44 46  1  0  0  0  0
 50 51  1  0  0  0  0
 55 56  1  0  0  0  0
 56 57  1  0  0  0  0
 56 61  1  0  0  0  0
 57 58  1  0  0  0  0
 58 59  1  0  0  0  0
 58 71  1  0  0  0  0
 59 60  1  0  0  0  0
 60 61  1  0  0  0  0
 63 64  1  0  0  0  0
 64 65  1  0  0  0  0
 67 68  4  0  0  0  0
 67 72  4  0  0  0  0
 68 69  4  0  0  0  0
 69 70  4  0  0  0  0
 70 71  4  0  0  0  0
 71 72  4  0  0  0  0
M  END
$$$$
