mol_ETKDG0_318
  PyMOL3.1          3D                             0

 73 79  0  0  0  0  0  0  0  0999 V2000
    2.9998    3.3181    1.0939 C   0  0  0  0  0  0  0  0  0  0  0  0
    1.6120    3.7060    0.7277 C   0  0  0  0  0  0  0  0  0  0  0  0
    0.8089    4.1416    1.8099 O   0  0  0  0  0  0  0  0  0  0  0  0
    0.2991    3.1427    2.6662 C   0  0  0  0  0  0  0  0  0  0  0  0
    1.5741    4.7590   -0.3066 C   0  0  0  0  0  0  0  0  0  0  0  0
    1.8449    5.9994    0.0566 N   0  0  0  0  0  0  0  0  0  0  0  0
    1.9035    6.9995   -0.8531 C   0  0  0  0  0  0  0  0  0  0  0  0
    1.6868    6.7648   -2.2163 C   0  0  0  0  0  0  0  0  0  0  0  0
    1.4057    5.4516   -2.6212 C   0  0  0  0  0  0  0  0  0  0  0  0
    1.3178    4.4522   -1.6411 C   0  0  0  0  0  0  0  0  0  0  0  0
    0.9654    3.1092   -2.0508 C   0  0  0  0  0  0  0  0  0  0  0  0
    1.8658    2.2069   -2.5293 N   0  0  0  0  0  0  0  0  0  0  0  0
    3.3458    2.3970   -2.7162 C   0  0  0  0  0  0  0  0  0  0  0  0
    3.7138    2.5798   -4.1260 C   0  0  0  0  0  0  0  0  0  0  0  0
   -0.3268    2.5172   -1.9396 C   0  0  0  0  0  0  0  0  0  0  0  0
   -1.6194    3.0510   -1.3664 C   0  0  0  0  0  0  0  0  0  0  0  0
   -2.5688    3.8350   -2.3796 C   0  0  0  0  0  0  0  0  0  0  0  0
   -1.9320    5.0942   -2.9180 C   0  0  0  0  0  0  0  0  0  0  0  0
   -3.7683    4.3050   -1.6013 C   0  0  0  0  0  0  0  0  0  0  0  0
   -3.0094    2.9757   -3.5563 C   0  0  0  0  0  0  0  0  0  0  0  0
   -4.2345    2.1387   -3.2905 O   0  0  0  0  0  0  0  0  0  0  0  0
   -5.3424    2.0020   -4.1687 C   0  0  0  0  0  0  0  0  0  0  0  0
   -6.4983    1.1117   -3.7543 C   0  0  0  0  0  0  0  0  0  0  0  0
   -6.3635    0.7235   -2.3876 N   0  0  0  0  0  0  0  0  0  0  0  0
   -7.3455   -0.0933   -1.8380 N   0  0  0  0  0  0  0  0  0  0  0  0
   -7.0011   -1.2440   -1.1863 C   0  0  0  0  0  0  0  0  0  0  0  0
   -5.5491   -1.5879   -1.0607 C   0  0  0  0  0  0  0  0  0  0  0  0
   -5.2220   -2.0530    0.2726 N   0  0  0  0  0  0  0  0  0  0  0  0
   -4.4756   -1.3292    1.1412 C   0  0  0  0  0  0  0  0  0  0  0  0
   -4.1125   -2.0100    2.4276 C   0  0  0  0  0  0  0  0  0  0  0  0
   -4.8979   -1.5268    3.6748 C   0  0  0  0  0  0  0  0  0  0  0  0
   -4.8828   -2.5047    4.7963 C   0  0  0  0  0  0  0  0  0  0  0  0
   -6.2102   -0.9009    3.4069 C   0  0  0  0  0  0  0  0  0  0  0  0
   -2.6675   -1.8250    2.6239 N   0  0  0  0  0  0  0  0  0  0  0  0
   -1.8009   -2.6882    1.9983 C   0  0  0  0  0  0  0  0  0  0  0  0
   -0.2908   -2.6098    2.0843 C   0  0  0  0  0  0  0  0  0  0  0  0
    0.1548   -1.4371    1.2412 C   0  0  0  0  0  0  0  0  0  0  0  0
    1.6509   -1.2938    1.2649 C   0  0  0  0  0  0  0  0  0  0  0  0
    2.2220   -2.5398    0.7520 N   0  0  0  0  0  0  0  0  0  0  0  0
    3.0172   -2.5175   -0.3679 C   0  0  0  0  0  0  0  0  0  0  0  0
    3.1365   -3.5990   -1.2207 C   0  0  0  0  0  0  0  0  0  0  0  0
    3.3518   -4.4072   -2.0088 C   0  0  0  0  0  0  0  0  0  0  0  0
    3.4802   -5.4849   -2.9151 C   0  0  0  0  0  0  0  0  0  0  0  0
    4.7194   -5.3807   -3.6296 N   0  0  0  0  0  0  0  0  0  0  0  0
    5.9215   -5.7930   -3.0067 C   0  0  0  0  0  0  0  0  0  0  0  0
    4.8424   -4.4654   -4.7080 C   0  0  0  0  0  0  0  0  0  0  0  0
    3.4105   -6.8000   -2.1433 C   0  0  0  0  0  0  0  0  0  0  0  0
    2.3112   -5.4846   -3.8823 C   0  0  0  0  0  0  0  0  0  0  0  0
    3.5996   -1.4826   -0.6733 O   0  0  0  0  0  0  0  0  0  0  0  0
    1.8620   -3.7401    1.4664 C   0  0  0  0  0  0  0  0  0  0  0  0
    0.3826   -3.8893    1.5425 C   0  0  0  0  0  0  0  0  0  0  0  0
   -2.3022   -3.5905    1.3030 O   0  0  0  0  0  0  0  0  0  0  0  0
   -2.1918   -0.6662    3.3944 C   0  0  0  0  0  0  0  0  0  0  0  0
   -4.0356   -0.2363    0.8221 O   0  0  0  0  0  0  0  0  0  0  0  0
   -5.1525   -2.6737   -2.1437 C   0  0  0  0  0  0  0  0  0  0  0  0
   -3.6315   -3.0065   -2.1884 C   0  0  0  0  0  0  0  0  0  0  0  0
   -2.9315   -1.8825   -2.8747 C   0  0  0  0  0  0  0  0  0  0  0  0
   -1.5182   -2.1418   -3.0442 N   0  0  0  0  0  0  0  0  0  0  0  0
   -1.1810   -3.4290   -3.6519 C   0  0  0  0  0  0  0  0  0  0  0  0
   -2.0137   -4.5692   -3.0365 C   0  0  0  0  0  0  0  0  0  0  0  0
   -3.4487   -4.2215   -2.9613 O   0  0  0  0  0  0  0  0  0  0  0  0
   -7.8591   -2.0154   -0.7219 O   0  0  0  0  0  0  0  0  0  0  0  0
   -8.7211    0.3977   -1.9377 C   0  0  0  0  0  0  0  0  0  0  0  0
   -9.0080    0.8692   -3.3823 C   0  0  0  0  0  0  0  0  0  0  0  0
   -7.8954    1.7770   -3.9410 C   0  0  0  0  0  0  0  0  0  0  0  0
   -5.4203    2.5653   -5.2758 O   0  0  0  0  0  0  0  0  0  0  0  0
   -0.1296    1.2056   -2.4243 C   0  0  0  0  0  0  0  0  0  0  0  0
    1.2143    1.0577   -2.7712 C   0  0  0  0  0  0  0  0  0  0  0  0
    1.6757   -0.2137   -3.2548 C   0  0  0  0  0  0  0  0  0  0  0  0
    0.7366   -1.2499   -3.3339 C   0  0  0  0  0  0  0  0  0  0  0  0
   -0.6067   -1.0803   -2.9715 C   0  0  0  0  0  0  0  0  0  0  0  0
   -1.0519    0.1686   -2.5102 C   0  0  0  0  0  0  0  0  0  0  0  0
    0.1164   -2.4810    3.4022 F   0  0  0  0  0  0  0  0  0  0  0  0
  1  2  1  0  0  0  0
  2  3  1  0  0  0  0
  2  5  1  0  0  0  0
  3  4  1  0  0  0  0
  5  6  4  0  0  0  0
  5 10  4  0  0  0  0
  6  7  4  0  0  0  0
  7  8  4  0  0  0  0
  8  9  4  0  0  0  0
  9 10  4  0  0  0  0
 10 11  1  0  0  0  0
 11 12  4  0  0  0  0
 11 15  4  0  0  0  0
 12 13  1  0  0  0  0
 12 68  4  0  0  0  0
 13 14  1  0  0  0  0
 15 16  1  0  0  0  0
 15 67  4  0  0  0  0
 16 17  1  0  0  0  0
 17 18  1  0  0  0  0
 17 19  1  0  0  0  0
 17 20  1  0  0  0  0
 20 21  1  0  0  0  0
 21 22  1  0  0  0  0
 22 23  1  0  0  0  0
 22 66  2  0  0  0  0
 23 24  1  0  0  0  0
 23 65  1  0  0  0  0
 24 25  1  0  0  0  0
 25 26  1  0  0  0  0
 25 63  1  0  0  0  0
 26 27  1  0  0  0  0
 26 62  2  0  0  0  0
 27 28  1  0  0  0  0
 27 55  1  0  0  0  0
 28 29  1  0  0  0  0
 29 30  1  0  0  0  0
 29 54  2  0  0  0  0
 30 31  1  0  0  0  0
 30 34  1  0  0  0  0
 31 32  1  0  0  0  0
 31 33  1  0  0  0  0
 34 35  1  0  0  0  0
 34 53  1  0  0  0  0
 35 36  1  0  0  0  0
 35 52  2  0  0  0  0
 36 37  1  0  0  0  0
 36 51  1  0  0  0  0
 36 73  1  0  0  0  0
 37 38  1  0  0  0  0
 38 39  1  0  0  0  0
 39 40  1  0  0  0  0
 39 50  1  0  0  0  0
 40 41  1  0  0  0  0
 40 49  2  0  0  0  0
 41 42  1  0  0  0  0
 42 43  1  0  0  0  0
 43 44  1  0  0  0  0
 43 47  1  0  0  0  0
 43 48  1  0  0  0  0
 44 45  1  0  0  0  0
 44 46  1  0  0  0  0
 50 51  1  0  0  0  0
 55 56  1  0  0  0  0
 56 57  1  0  0  0  0
 56 61  1  0  0  0  0
 57 58  1  0  0  0  0
 58 59  1  0  0  0  0
 58 71  1  0  0  0  0
 59 60  1  0  0  0  0
 60 61  1  0  0  0  0
 63 64  1  0  0  0  0
 64 65  1  0  0  0  0
 67 68  4  0  0  0  0
 67 72  4  0  0  0  0
 68 69  4  0  0  0  0
 69 70  4  0  0  0  0
 70 71  4  0  0  0  0
 71 72  4  0  0  0  0
M  END
$$$$
