mol_ETKDG2_149
  PyMOL3.1          3D                             0

 73 79  0  0  0  0  0  0  0  0999 V2000
    7.2480   -1.2678    0.2978 C   0  0  0  0  0  0  0  0  0  0  0  0
    6.2674   -0.2857    0.8523 C   0  0  0  0  0  0  0  0  0  0  0  0
    6.5907    1.0621    0.5631 O   0  0  0  0  0  0  0  0  0  0  0  0
    6.3845    1.4919   -0.7711 C   0  0  0  0  0  0  0  0  0  0  0  0
    6.0907   -0.4033    2.3358 C   0  0  0  0  0  0  0  0  0  0  0  0
    7.1523   -0.1606    3.0902 N   0  0  0  0  0  0  0  0  0  0  0  0
    7.1028   -0.2824    4.4331 C   0  0  0  0  0  0  0  0  0  0  0  0
    5.9402   -0.6797    5.0872 C   0  0  0  0  0  0  0  0  0  0  0  0
    4.8126   -0.9475    4.3092 C   0  0  0  0  0  0  0  0  0  0  0  0
    4.8881   -0.7962    2.9228 C   0  0  0  0  0  0  0  0  0  0  0  0
    3.7031   -1.0278    2.1279 C   0  0  0  0  0  0  0  0  0  0  0  0
    3.5177   -2.1286    1.3617 N   0  0  0  0  0  0  0  0  0  0  0  0
    4.3900   -3.3444    1.3122 C   0  0  0  0  0  0  0  0  0  0  0  0
    4.8684   -3.7495    0.0070 C   0  0  0  0  0  0  0  0  0  0  0  0
    2.5669   -0.1772    2.0389 C   0  0  0  0  0  0  0  0  0  0  0  0
    2.1540    1.0120    2.8349 C   0  0  0  0  0  0  0  0  0  0  0  0
    2.6379    2.4404    2.4630 C   0  0  0  0  0  0  0  0  0  0  0  0
    4.1307    2.6126    2.6566 C   0  0  0  0  0  0  0  0  0  0  0  0
    1.9971    3.3925    3.4487 C   0  0  0  0  0  0  0  0  0  0  0  0
    2.2463    2.8275    1.0601 C   0  0  0  0  0  0  0  0  0  0  0  0
    0.8776    3.4814    0.9376 O   0  0  0  0  0  0  0  0  0  0  0  0
    0.5557    4.5081    0.0095 C   0  0  0  0  0  0  0  0  0  0  0  0
   -0.8605    5.0498   -0.0473 C   0  0  0  0  0  0  0  0  0  0  0  0
   -1.6654    4.4969    0.9992 N   0  0  0  0  0  0  0  0  0  0  0  0
   -2.9879    4.9169    1.0900 N   0  0  0  0  0  0  0  0  0  0  0  0
   -4.0138    4.0125    1.1003 C   0  0  0  0  0  0  0  0  0  0  0  0
   -3.6912    2.5476    1.0205 C   0  0  0  0  0  0  0  0  0  0  0  0
   -4.6147    1.7659    1.8052 N   0  0  0  0  0  0  0  0  0  0  0  0
   -4.2781    1.1421    2.9379 C   0  0  0  0  0  0  0  0  0  0  0  0
   -5.2944    0.2263    3.5244 C   0  0  0  0  0  0  0  0  0  0  0  0
   -6.1593    0.8060    4.6712 C   0  0  0  0  0  0  0  0  0  0  0  0
   -7.4675    0.1121    4.8335 C   0  0  0  0  0  0  0  0  0  0  0  0
   -6.2439    2.2865    4.7282 C   0  0  0  0  0  0  0  0  0  0  0  0
   -4.5738   -0.9812    3.9219 N   0  0  0  0  0  0  0  0  0  0  0  0
   -4.3384   -1.9386    2.9546 C   0  0  0  0  0  0  0  0  0  0  0  0
   -3.5173   -3.1869    3.1572 C   0  0  0  0  0  0  0  0  0  0  0  0
   -3.8370   -4.2950    2.1398 C   0  0  0  0  0  0  0  0  0  0  0  0
   -2.8986   -5.4551    2.2962 C   0  0  0  0  0  0  0  0  0  0  0  0
   -1.4971   -5.0028    2.3071 N   0  0  0  0  0  0  0  0  0  0  0  0
   -0.5217   -5.5308    1.5123 C   0  0  0  0  0  0  0  0  0  0  0  0
   -0.8129   -6.2295    0.3580 C   0  0  0  0  0  0  0  0  0  0  0  0
   -0.9731   -6.8739   -0.5952 C   0  0  0  0  0  0  0  0  0  0  0  0
   -1.3782   -7.6149   -1.7231 C   0  0  0  0  0  0  0  0  0  0  0  0
   -1.7680   -8.9234   -1.3229 N   0  0  0  0  0  0  0  0  0  0  0  0
   -2.9826   -9.1115   -0.6414 C   0  0  0  0  0  0  0  0  0  0  0  0
   -0.9504  -10.0489   -1.5121 C   0  0  0  0  0  0  0  0  0  0  0  0
   -0.2677   -7.6720   -2.7413 C   0  0  0  0  0  0  0  0  0  0  0  0
   -2.5529   -6.9226   -2.4186 C   0  0  0  0  0  0  0  0  0  0  0  0
    0.6700   -5.3352    1.7999 O   0  0  0  0  0  0  0  0  0  0  0  0
   -1.1658   -3.9354    3.1980 C   0  0  0  0  0  0  0  0  0  0  0  0
   -2.0646   -2.7714    2.9900 C   0  0  0  0  0  0  0  0  0  0  0  0
   -4.8146   -1.7390    1.8177 O   0  0  0  0  0  0  0  0  0  0  0  0
   -4.0174   -1.0630    5.2838 C   0  0  0  0  0  0  0  0  0  0  0  0
   -3.1404    1.2341    3.3686 O   0  0  0  0  0  0  0  0  0  0  0  0
   -3.7632    2.0409   -0.4770 C   0  0  0  0  0  0  0  0  0  0  0  0
   -3.3648    0.5484   -0.6500 C   0  0  0  0  0  0  0  0  0  0  0  0
   -1.8822    0.4629   -0.6052 C   0  0  0  0  0  0  0  0  0  0  0  0
   -1.4079   -0.8809   -0.8312 N   0  0  0  0  0  0  0  0  0  0  0  0
   -1.9479   -1.5186   -2.0474 C   0  0  0  0  0  0  0  0  0  0  0  0
   -3.4643   -1.3171   -2.1475 C   0  0  0  0  0  0  0  0  0  0  0  0
   -3.8424    0.0907   -1.9380 O   0  0  0  0  0  0  0  0  0  0  0  0
   -5.2037    4.3753    1.1327 O   0  0  0  0  0  0  0  0  0  0  0  0
   -3.1897    6.3609    1.2293 C   0  0  0  0  0  0  0  0  0  0  0  0
   -2.3681    7.1004    0.1482 C   0  0  0  0  0  0  0  0  0  0  0  0
   -0.9208    6.6010    0.0653 C   0  0  0  0  0  0  0  0  0  0  0  0
    1.3725    5.0142   -0.7820 O   0  0  0  0  0  0  0  0  0  0  0  0
    1.7370   -0.8140    1.1019 C   0  0  0  0  0  0  0  0  0  0  0  0
    2.3424   -2.0015    0.7253 C   0  0  0  0  0  0  0  0  0  0  0  0
    1.6578   -2.8687   -0.1975 C   0  0  0  0  0  0  0  0  0  0  0  0
    0.4222   -2.4622   -0.6815 C   0  0  0  0  0  0  0  0  0  0  0  0
   -0.1647   -1.2606   -0.3044 C   0  0  0  0  0  0  0  0  0  0  0  0
    0.4821   -0.4205    0.6303 C   0  0  0  0  0  0  0  0  0  0  0  0
   -3.7312   -3.7334    4.4029 F   0  0  0  0  0  0  0  0  0  0  0  0
  1  2  1  0  0  0  0
  2  3  1  0  0  0  0
  2  5  1  0  0  0  0
  3  4  1  0  0  0  0
  5  6  4  0  0  0  0
  5 10  4  0  0  0  0
  6  7  4  0  0  0  0
  7  8  4  0  0  0  0
  8  9  4  0  0  0  0
  9 10  4  0  0  0  0
 10 11  1  0  0  0  0
 11 12  4  0  0  0  0
 11 15  4  0  0  0  0
 12 13  1  0  0  0  0
 12 68  4  0  0  0  0
 13 14  1  0  0  0  0
 15 16  1  0  0  0  0
 15 67  4  0  0  0  0
 16 17  1  0  0  0  0
 17 18  1  0  0  0  0
 17 19  1  0  0  0  0
 17 20  1  0  0  0  0
 20 21  1  0  0  0  0
 21 22  1  0  0  0  0
 22 23  1  0  0  0  0
 22 66  2  0  0  0  0
 23 24  1  0  0  0  0
 23 65  1  0  0  0  0
 24 25  1  0  0  0  0
 25 26  1  0  0  0  0
 25 63  1  0  0  0  0
 26 27  1  0  0  0  0
 26 62  2  0  0  0  0
 27 28  1  0  0  0  0
 27 55  1  0  0  0  0
 28 29  1  0  0  0  0
 29 30  1  0  0  0  0
 29 54  2  0  0  0  0
 30 31  1  0  0  0  0
 30 34  1  0  0  0  0
 31 32  1  0  0  0  0
 31 33  1  0  0  0  0
 34 35  1  0  0  0  0
 34 53  1  0  0  0  0
 35 36  1  0  0  0  0
 35 52  2  0  0  0  0
 36 37  1  0  0  0  0
 36 51  1  0  0  0  0
 36 73  1  0  0  0  0
 37 38  1  0  0  0  0
 38 39  1  0  0  0  0
 39 40  1  0  0  0  0
 39 50  1  0  0  0  0
 40 41  1  0  0  0  0
 40 49  2  0  0  0  0
 41 42  1  0  0  0  0
 42 43  1  0  0  0  0
 43 44  1  0  0  0  0
 43 47  1  0  0  0  0
 43 48  1  0  0  0  0
 44 45  1  0  0  0  0
 44 46  1  0  0  0  0
 50 51  1  0  0  0  0
 55 56  1  0  0  0  0
 56 57  1  0  0  0  0
 56 61  1  0  0  0  0
 57 58  1  0  0  0  0
 58 59  1  0  0  0  0
 58 71  1  0  0  0  0
 59 60  1  0  0  0  0
 60 61  1  0  0  0  0
 63 64  1  0  0  0  0
 64 65  1  0  0  0  0
 67 68  4  0  0  0  0
 67 72  4  0  0  0  0
 68 69  4  0  0  0  0
 69 70  4  0  0  0  0
 70 71  4  0  0  0  0
 71 72  4  0  0  0  0
M  END
$$$$
