mol_ETKDG0_314
  PyMOL3.1          3D                             0

 73 79  0  0  0  0  0  0  0  0999 V2000
   -1.2120   -4.7791    6.2089 C   0  0  0  0  0  0  0  0  0  0  0  0
   -0.5895   -3.9872    5.1663 C   0  0  0  0  0  0  0  0  0  0  0  0
   -0.2912   -2.7683    5.4038 O   0  0  0  0  0  0  0  0  0  0  0  0
   -0.1120   -2.2634    6.6980 C   0  0  0  0  0  0  0  0  0  0  0  0
   -0.6426   -4.4412    3.7836 C   0  0  0  0  0  0  0  0  0  0  0  0
   -1.5803   -5.3333    3.4982 N   0  0  0  0  0  0  0  0  0  0  0  0
   -1.7047   -5.8501    2.2743 C   0  0  0  0  0  0  0  0  0  0  0  0
   -0.8600   -5.4888    1.2483 C   0  0  0  0  0  0  0  0  0  0  0  0
    0.1225   -4.5569    1.5183 C   0  0  0  0  0  0  0  0  0  0  0  0
    0.2237   -4.0051    2.7973 C   0  0  0  0  0  0  0  0  0  0  0  0
    1.2507   -3.0120    3.0321 C   0  0  0  0  0  0  0  0  0  0  0  0
    2.3766   -3.2456    3.7501 N   0  0  0  0  0  0  0  0  0  0  0  0
    2.7910   -4.5267    4.4301 C   0  0  0  0  0  0  0  0  0  0  0  0
    3.7134   -5.3407    3.5741 C   0  0  0  0  0  0  0  0  0  0  0  0
    1.2696   -1.6817    2.5145 C   0  0  0  0  0  0  0  0  0  0  0  0
    0.3467   -0.9341    1.6170 C   0  0  0  0  0  0  0  0  0  0  0  0
   -0.8474   -0.1770    2.2885 C   0  0  0  0  0  0  0  0  0  0  0  0
   -1.9908   -1.1511    2.5626 C   0  0  0  0  0  0  0  0  0  0  0  0
   -1.3776    0.8007    1.2862 C   0  0  0  0  0  0  0  0  0  0  0  0
   -0.4945    0.5480    3.5286 C   0  0  0  0  0  0  0  0  0  0  0  0
   -0.1221    2.0038    3.4313 O   0  0  0  0  0  0  0  0  0  0  0  0
   -0.2541    2.9340    4.5103 C   0  0  0  0  0  0  0  0  0  0  0  0
    0.1468    4.3748    4.2982 C   0  0  0  0  0  0  0  0  0  0  0  0
    0.1726    4.6888    2.9044 N   0  0  0  0  0  0  0  0  0  0  0  0
    0.4498    6.0068    2.5543 N   0  0  0  0  0  0  0  0  0  0  0  0
    1.4649    6.3091    1.7003 C   0  0  0  0  0  0  0  0  0  0  0  0
    2.3430    5.2008    1.1550 C   0  0  0  0  0  0  0  0  0  0  0  0
    2.7652    5.5118   -0.2064 N   0  0  0  0  0  0  0  0  0  0  0  0
    2.1047    5.1764   -1.3360 C   0  0  0  0  0  0  0  0  0  0  0  0
    2.7275    5.5879   -2.6254 C   0  0  0  0  0  0  0  0  0  0  0  0
    2.0156    6.7991   -3.3149 C   0  0  0  0  0  0  0  0  0  0  0  0
    2.5602    7.1363   -4.6557 C   0  0  0  0  0  0  0  0  0  0  0  0
    1.9641    7.9884   -2.4053 C   0  0  0  0  0  0  0  0  0  0  0  0
    2.8532    4.4299   -3.4845 N   0  0  0  0  0  0  0  0  0  0  0  0
    4.0182    3.7507   -3.4532 C   0  0  0  0  0  0  0  0  0  0  0  0
    4.4034    2.5302   -4.2085 C   0  0  0  0  0  0  0  0  0  0  0  0
    4.1851    2.5307   -5.6906 C   0  0  0  0  0  0  0  0  0  0  0  0
    4.6232    1.2738   -6.2886 C   0  0  0  0  0  0  0  0  0  0  0  0
    4.3414    0.0617   -5.5137 N   0  0  0  0  0  0  0  0  0  0  0  0
    4.3200   -1.1564   -6.0445 C   0  0  0  0  0  0  0  0  0  0  0  0
    4.8509   -1.3796   -7.2875 C   0  0  0  0  0  0  0  0  0  0  0  0
    5.2794   -1.6580   -8.3215 C   0  0  0  0  0  0  0  0  0  0  0  0
    5.8099   -1.7535   -9.6160 C   0  0  0  0  0  0  0  0  0  0  0  0
    5.0363   -0.9586  -10.5010 N   0  0  0  0  0  0  0  0  0  0  0  0
    3.7838   -1.4228  -10.9410 C   0  0  0  0  0  0  0  0  0  0  0  0
    5.4605    0.3113  -10.9224 C   0  0  0  0  0  0  0  0  0  0  0  0
    5.8239   -3.1999  -10.0805 C   0  0  0  0  0  0  0  0  0  0  0  0
    7.2556   -1.2856   -9.6138 C   0  0  0  0  0  0  0  0  0  0  0  0
    3.8602   -2.1018   -5.3785 O   0  0  0  0  0  0  0  0  0  0  0  0
    4.1555    0.1413   -4.1369 C   0  0  0  0  0  0  0  0  0  0  0  0
    3.8164    1.3330   -3.5237 C   0  0  0  0  0  0  0  0  0  0  0  0
    4.8569    4.2008   -2.6716 O   0  0  0  0  0  0  0  0  0  0  0  0
    1.6912    3.9834   -4.2667 C   0  0  0  0  0  0  0  0  0  0  0  0
    1.1259    4.4767   -1.2679 O   0  0  0  0  0  0  0  0  0  0  0  0
    3.6008    5.0975    2.0934 C   0  0  0  0  0  0  0  0  0  0  0  0
    4.5339    3.8885    1.9355 C   0  0  0  0  0  0  0  0  0  0  0  0
    3.9798    2.7917    2.7803 C   0  0  0  0  0  0  0  0  0  0  0  0
    4.8545    1.6488    2.8651 N   0  0  0  0  0  0  0  0  0  0  0  0
    6.2506    1.9485    3.1922 C   0  0  0  0  0  0  0  0  0  0  0  0
    6.7708    3.1425    2.3942 C   0  0  0  0  0  0  0  0  0  0  0  0
    5.8410    4.2742    2.4326 O   0  0  0  0  0  0  0  0  0  0  0  0
    1.7291    7.4897    1.4178 O   0  0  0  0  0  0  0  0  0  0  0  0
   -0.4464    7.0121    3.1124 C   0  0  0  0  0  0  0  0  0  0  0  0
   -0.5177    6.8108    4.6401 C   0  0  0  0  0  0  0  0  0  0  0  0
   -0.8060    5.3648    5.0108 C   0  0  0  0  0  0  0  0  0  0  0  0
   -0.6943    2.6473    5.6442 O   0  0  0  0  0  0  0  0  0  0  0  0
    2.4880   -1.1641    2.9584 C   0  0  0  0  0  0  0  0  0  0  0  0
    3.1413   -2.1432    3.6884 C   0  0  0  0  0  0  0  0  0  0  0  0
    4.4399   -1.8478    4.2135 C   0  0  0  0  0  0  0  0  0  0  0  0
    4.9889   -0.5755    3.9327 C   0  0  0  0  0  0  0  0  0  0  0  0
    4.3001    0.3922    3.1746 C   0  0  0  0  0  0  0  0  0  0  0  0
    3.0271    0.0960    2.6965 C   0  0  0  0  0  0  0  0  0  0  0  0
    5.7441    2.3421   -4.1594 F   0  0  0  0  0  0  0  0  0  0  0  0
  1  2  1  0  0  0  0
  2  3  1  0  0  0  0
  2  5  1  0  0  0  0
  3  4  1  0  0  0  0
  5  6  4  0  0  0  0
  5 10  4  0  0  0  0
  6  7  4  0  0  0  0
  7  8  4  0  0  0  0
  8  9  4  0  0  0  0
  9 10  4  0  0  0  0
 10 11  1  0  0  0  0
 11 12  4  0  0  0  0
 11 15  4  0  0  0  0
 12 13  1  0  0  0  0
 12 68  4  0  0  0  0
 13 14  1  0  0  0  0
 15 16  1  0  0  0  0
 15 67  4  0  0  0  0
 16 17  1  0  0  0  0
 17 18  1  0  0  0  0
 17 19  1  0  0  0  0
 17 20  1  0  0  0  0
 20 21  1  0  0  0  0
 21 22  1  0  0  0  0
 22 23  1  0  0  0  0
 22 66  2  0  0  0  0
 23 24  1  0  0  0  0
 23 65  1  0  0  0  0
 24 25  1  0  0  0  0
 25 26  1  0  0  0  0
 25 63  1  0  0  0  0
 26 27  1  0  0  0  0
 26 62  2  0  0  0  0
 27 28  1  0  0  0  0
 27 55  1  0  0  0  0
 28 29  1  0  0  0  0
 29 30  1  0  0  0  0
 29 54  2  0  0  0  0
 30 31  1  0  0  0  0
 30 34  1  0  0  0  0
 31 32  1  0  0  0  0
 31 33  1  0  0  0  0
 34 35  1  0  0  0  0
 34 53  1  0  0  0  0
 35 36  1  0  0  0  0
 35 52  2  0  0  0  0
 36 37  1  0  0  0  0
 36 51  1  0  0  0  0
 36 73  1  0  0  0  0
 37 38  1  0  0  0  0
 38 39  1  0  0  0  0
 39 40  1  0  0  0  0
 39 50  1  0  0  0  0
 40 41  1  0  0  0  0
 40 49  2  0  0  0  0
 41 42  1  0  0  0  0
 42 43  1  0  0  0  0
 43 44  1  0  0  0  0
 43 47  1  0  0  0  0
 43 48  1  0  0  0  0
 44 45  1  0  0  0  0
 44 46  1  0  0  0  0
 50 51  1  0  0  0  0
 55 56  1  0  0  0  0
 56 57  1  0  0  0  0
 56 61  1  0  0  0  0
 57 58  1  0  0  0  0
 58 59  1  0  0  0  0
 58 71  1  0  0  0  0
 59 60  1  0  0  0  0
 60 61  1  0  0  0  0
 63 64  1  0  0  0  0
 64 65  1  0  0  0  0
 67 68  4  0  0  0  0
 67 72  4  0  0  0  0
 68 69  4  0  0  0  0
 69 70  4  0  0  0  0
 70 71  4  0  0  0  0
 71 72  4  0  0  0  0
M  END
$$$$
