mol_bioactive_34
  PyMOL3.1          3D                             0

 73 79  0  0  0  0  0  0  0  0999 V2000
   -5.9378    2.6718    6.5057 C   0  0  0  0  0  0  0  0  0  0  0  0
   -5.6439    2.1859    5.1200 C   0  0  0  0  0  0  0  0  0  0  0  0
   -6.4837    2.7324    4.1370 O   0  0  0  0  0  0  0  0  0  0  0  0
   -6.3914    4.1184    3.8660 C   0  0  0  0  0  0  0  0  0  0  0  0
   -5.6803    0.6880    4.9865 C   0  0  0  0  0  0  0  0  0  0  0  0
   -6.8131    0.0735    5.2785 N   0  0  0  0  0  0  0  0  0  0  0  0
   -6.9109   -1.2770    5.2428 C   0  0  0  0  0  0  0  0  0  0  0  0
   -5.8268   -2.0889    4.9026 C   0  0  0  0  0  0  0  0  0  0  0  0
   -4.6250   -1.4619    4.5849 C   0  0  0  0  0  0  0  0  0  0  0  0
   -4.5635   -0.0652    4.6177 C   0  0  0  0  0  0  0  0  0  0  0  0
   -3.3361    0.5815    4.2308 C   0  0  0  0  0  0  0  0  0  0  0  0
   -2.4514    1.0941    5.1108 N   0  0  0  0  0  0  0  0  0  0  0  0
   -2.4904    0.9607    6.6016 C   0  0  0  0  0  0  0  0  0  0  0  0
   -2.5385    2.1792    7.3753 C   0  0  0  0  0  0  0  0  0  0  0  0
   -2.8753    0.7675    2.8965 C   0  0  0  0  0  0  0  0  0  0  0  0
   -3.3591    0.2442    1.5902 C   0  0  0  0  0  0  0  0  0  0  0  0
   -4.4547    1.0061    0.7835 C   0  0  0  0  0  0  0  0  0  0  0  0
   -5.8460    0.6725    1.3235 C   0  0  0  0  0  0  0  0  0  0  0  0
   -4.4124    0.4460   -0.6008 C   0  0  0  0  0  0  0  0  0  0  0  0
   -4.2884    2.5208    0.7321 C   0  0  0  0  0  0  0  0  0  0  0  0
   -3.6055    3.0844   -0.4848 O   0  0  0  0  0  0  0  0  0  0  0  0
   -3.9461    4.3109   -1.1323 C   0  0  0  0  0  0  0  0  0  0  0  0
   -3.1302    4.7499   -2.3482 C   0  0  0  0  0  0  0  0  0  0  0  0
   -2.4626    3.6279   -2.9195 N   0  0  0  0  0  0  0  0  0  0  0  0
   -1.7194    3.7891   -4.0888 N   0  0  0  0  0  0  0  0  0  0  0  0
   -0.4143    3.3634   -4.1618 C   0  0  0  0  0  0  0  0  0  0  0  0
    0.2578    2.8160   -2.9273 C   0  0  0  0  0  0  0  0  0  0  0  0
    1.1136    1.6816   -3.2489 N   0  0  0  0  0  0  0  0  0  0  0  0
    0.7537    0.3902   -3.2105 C   0  0  0  0  0  0  0  0  0  0  0  0
    1.8376   -0.6121   -3.4674 C   0  0  0  0  0  0  0  0  0  0  0  0
    1.7752   -1.3154   -4.8597 C   0  0  0  0  0  0  0  0  0  0  0  0
    3.0262   -2.0646   -5.1870 C   0  0  0  0  0  0  0  0  0  0  0  0
    1.3137   -0.4224   -5.9644 C   0  0  0  0  0  0  0  0  0  0  0  0
    1.8111   -1.5548   -2.3515 N   0  0  0  0  0  0  0  0  0  0  0  0
    2.4638   -1.1951   -1.2017 C   0  0  0  0  0  0  0  0  0  0  0  0
    2.4459   -1.9807    0.0877 C   0  0  0  0  0  0  0  0  0  0  0  0
    3.4932   -1.4633    1.0835 C   0  0  0  0  0  0  0  0  0  0  0  0
    3.3493   -2.1003    2.4325 C   0  0  0  0  0  0  0  0  0  0  0  0
    1.9600   -1.9860    2.8940 N   0  0  0  0  0  0  0  0  0  0  0  0
    1.5945   -1.4029    4.0801 C   0  0  0  0  0  0  0  0  0  0  0  0
    2.4417   -0.5635    4.7643 C   0  0  0  0  0  0  0  0  0  0  0  0
    3.1086    0.1031    5.4239 C   0  0  0  0  0  0  0  0  0  0  0  0
    4.0994    0.8707    6.0793 C   0  0  0  0  0  0  0  0  0  0  0  0
    4.7541    0.0504    7.0513 N   0  0  0  0  0  0  0  0  0  0  0  0
    5.5325   -1.0428    6.6046 C   0  0  0  0  0  0  0  0  0  0  0  0
    4.3459    0.0386    8.3990 C   0  0  0  0  0  0  0  0  0  0  0  0
    3.4744    2.0917    6.7071 C   0  0  0  0  0  0  0  0  0  0  0  0
    5.1180    1.3821    5.0702 C   0  0  0  0  0  0  0  0  0  0  0  0
    0.4509   -1.5734    4.5297 O   0  0  0  0  0  0  0  0  0  0  0  0
    0.9520   -2.4761    2.0026 C   0  0  0  0  0  0  0  0  0  0  0  0
    1.0616   -1.7815    0.6849 C   0  0  0  0  0  0  0  0  0  0  0  0
    3.0877   -0.1203   -1.2170 O   0  0  0  0  0  0  0  0  0  0  0  0
    0.9812   -2.7731   -2.4569 C   0  0  0  0  0  0  0  0  0  0  0  0
   -0.3685    0.0777   -2.8498 O   0  0  0  0  0  0  0  0  0  0  0  0
    1.1228    3.9639   -2.2751 C   0  0  0  0  0  0  0  0  0  0  0  0
    1.5473    4.0290   -0.7850 C   0  0  0  0  0  0  0  0  0  0  0  0
    0.7720    3.1616    0.0991 C   0  0  0  0  0  0  0  0  0  0  0  0
    1.2249    3.0784    1.4582 N   0  0  0  0  0  0  0  0  0  0  0  0
    2.4945    3.6309    1.8214 C   0  0  0  0  0  0  0  0  0  0  0  0
    3.4367    3.9420    0.7066 C   0  0  0  0  0  0  0  0  0  0  0  0
    2.9605    3.7779   -0.6571 O   0  0  0  0  0  0  0  0  0  0  0  0
    0.2461    3.4789   -5.2071 O   0  0  0  0  0  0  0  0  0  0  0  0
   -2.4350    4.3898   -5.2097 C   0  0  0  0  0  0  0  0  0  0  0  0
   -3.1790    5.6578   -4.7345 C   0  0  0  0  0  0  0  0  0  0  0  0
   -3.9794    5.4340   -3.4535 C   0  0  0  0  0  0  0  0  0  0  0  0
   -4.8806    5.0416   -0.7632 O   0  0  0  0  0  0  0  0  0  0  0  0
   -1.6863    1.4795    3.0486 C   0  0  0  0  0  0  0  0  0  0  0  0
   -1.4576    1.6612    4.4071 C   0  0  0  0  0  0  0  0  0  0  0  0
   -0.2686    2.3443    4.8141 C   0  0  0  0  0  0  0  0  0  0  0  0
    0.5962    2.8034    3.8082 C   0  0  0  0  0  0  0  0  0  0  0  0
    0.3463    2.5986    2.4411 C   0  0  0  0  0  0  0  0  0  0  0  0
   -0.8124    1.9137    2.0568 C   0  0  0  0  0  0  0  0  0  0  0  0
    2.6989   -3.3262   -0.1294 F   0  0  0  0  0  0  0  0  0  0  0  0
  1  2  1  0  0  0  0
  2  3  1  0  0  0  0
  2  5  1  0  0  0  0
  3  4  1  0  0  0  0
  5  6  4  0  0  0  0
  5 10  4  0  0  0  0
  6  7  4  0  0  0  0
  7  8  4  0  0  0  0
  8  9  4  0  0  0  0
  9 10  4  0  0  0  0
 10 11  1  0  0  0  0
 11 12  4  0  0  0  0
 11 15  4  0  0  0  0
 12 13  1  0  0  0  0
 12 68  4  0  0  0  0
 13 14  1  0  0  0  0
 15 16  1  0  0  0  0
 15 67  4  0  0  0  0
 16 17  1  0  0  0  0
 17 18  1  0  0  0  0
 17 19  1  0  0  0  0
 17 20  1  0  0  0  0
 20 21  1  0  0  0  0
 21 22  1  0  0  0  0
 22 23  1  0  0  0  0
 22 66  2  0  0  0  0
 23 24  1  0  0  0  0
 23 65  1  0  0  0  0
 24 25  1  0  0  0  0
 25 26  1  0  0  0  0
 25 63  1  0  0  0  0
 26 27  1  0  0  0  0
 26 62  2  0  0  0  0
 27 28  1  0  0  0  0
 27 55  1  0  0  0  0
 28 29  1  0  0  0  0
 29 30  1  0  0  0  0
 29 54  2  0  0  0  0
 30 31  1  0  0  0  0
 30 34  1  0  0  0  0
 31 32  1  0  0  0  0
 31 33  1  0  0  0  0
 34 35  1  0  0  0  0
 34 53  1  0  0  0  0
 35 36  1  0  0  0  0
 35 52  2  0  0  0  0
 36 37  1  0  0  0  0
 36 51  1  0  0  0  0
 36 73  1  0  0  0  0
 37 38  1  0  0  0  0
 38 39  1  0  0  0  0
 39 40  1  0  0  0  0
 39 50  1  0  0  0  0
 40 41  1  0  0  0  0
 40 49  2  0  0  0  0
 41 42  1  0  0  0  0
 42 43  1  0  0  0  0
 43 44  1  0  0  0  0
 43 47  1  0  0  0  0
 43 48  1  0  0  0  0
 44 45  1  0  0  0  0
 44 46  1  0  0  0  0
 50 51  1  0  0  0  0
 55 56  1  0  0  0  0
 56 57  1  0  0  0  0
 56 61  1  0  0  0  0
 57 58  1  0  0  0  0
 58 59  1  0  0  0  0
 58 71  1  0  0  0  0
 59 60  1  0  0  0  0
 60 61  1  0  0  0  0
 63 64  1  0  0  0  0
 64 65  1  0  0  0  0
 67 68  4  0  0  0  0
 67 72  4  0  0  0  0
 68 69  4  0  0  0  0
 69 70  4  0  0  0  0
 70 71  4  0  0  0  0
 71 72  4  0  0  0  0
M  END
$$$$
