mol_ETKDG2_102
  PyMOL3.1          3D                             0

 73 79  0  0  0  0  0  0  0  0999 V2000
    3.8709   -0.9939    1.5520 C   0  0  0  0  0  0  0  0  0  0  0  0
    3.1332   -1.7795    0.5452 C   0  0  0  0  0  0  0  0  0  0  0  0
    3.1507   -1.2814   -0.7709 O   0  0  0  0  0  0  0  0  0  0  0  0
    2.3941   -0.1259   -1.0551 C   0  0  0  0  0  0  0  0  0  0  0  0
    3.5467   -3.1945    0.4981 C   0  0  0  0  0  0  0  0  0  0  0  0
    4.6561   -3.4972   -0.1583 N   0  0  0  0  0  0  0  0  0  0  0  0
    5.1130   -4.7706   -0.2210 C   0  0  0  0  0  0  0  0  0  0  0  0
    4.4394   -5.8227    0.4182 C   0  0  0  0  0  0  0  0  0  0  0  0
    3.2639   -5.5196    1.1353 C   0  0  0  0  0  0  0  0  0  0  0  0
    2.8114   -4.1864    1.1539 C   0  0  0  0  0  0  0  0  0  0  0  0
    1.5827   -3.8531    1.8549 C   0  0  0  0  0  0  0  0  0  0  0  0
    1.5293   -3.6065    3.1925 N   0  0  0  0  0  0  0  0  0  0  0  0
    2.6635   -3.6560    4.1823 C   0  0  0  0  0  0  0  0  0  0  0  0
    2.6212   -4.8241    5.0638 C   0  0  0  0  0  0  0  0  0  0  0  0
    0.3124   -3.6070    1.2499 C   0  0  0  0  0  0  0  0  0  0  0  0
   -0.1222   -3.6388   -0.1994 C   0  0  0  0  0  0  0  0  0  0  0  0
   -0.7036   -5.0228   -0.7433 C   0  0  0  0  0  0  0  0  0  0  0  0
    0.2980   -6.1561   -0.6489 C   0  0  0  0  0  0  0  0  0  0  0  0
   -0.9675   -4.8492   -2.2193 C   0  0  0  0  0  0  0  0  0  0  0  0
   -1.9949   -5.4423   -0.0197 C   0  0  0  0  0  0  0  0  0  0  0  0
   -3.2538   -4.7576   -0.5148 O   0  0  0  0  0  0  0  0  0  0  0  0
   -4.4629   -5.4299   -0.8835 C   0  0  0  0  0  0  0  0  0  0  0  0
   -5.6575   -4.5957   -1.3414 C   0  0  0  0  0  0  0  0  0  0  0  0
   -5.2399   -3.2881   -1.7284 N   0  0  0  0  0  0  0  0  0  0  0  0
   -6.1965   -2.3968   -2.2232 N   0  0  0  0  0  0  0  0  0  0  0  0
   -6.3365   -1.1417   -1.6926 C   0  0  0  0  0  0  0  0  0  0  0  0
   -5.4634   -0.7471   -0.5257 C   0  0  0  0  0  0  0  0  0  0  0  0
   -5.0596    0.6515   -0.6267 N   0  0  0  0  0  0  0  0  0  0  0  0
   -3.8070    1.0545   -0.9739 C   0  0  0  0  0  0  0  0  0  0  0  0
   -3.5558    2.5290   -0.9724 C   0  0  0  0  0  0  0  0  0  0  0  0
   -3.5976    3.2280   -2.3645 C   0  0  0  0  0  0  0  0  0  0  0  0
   -3.7539    4.7106   -2.2570 C   0  0  0  0  0  0  0  0  0  0  0  0
   -4.5262    2.6067   -3.3449 C   0  0  0  0  0  0  0  0  0  0  0  0
   -2.2826    2.7854   -0.3043 N   0  0  0  0  0  0  0  0  0  0  0  0
   -2.2925    2.9838    1.0540 C   0  0  0  0  0  0  0  0  0  0  0  0
   -1.0810    3.3103    1.8950 C   0  0  0  0  0  0  0  0  0  0  0  0
   -1.4357    4.2448    3.0599 C   0  0  0  0  0  0  0  0  0  0  0  0
   -0.2490    4.4864    3.9267 C   0  0  0  0  0  0  0  0  0  0  0  0
    0.3865    3.2079    4.3108 N   0  0  0  0  0  0  0  0  0  0  0  0
    0.6812    2.8718    5.5997 C   0  0  0  0  0  0  0  0  0  0  0  0
    0.2220    3.5998    6.6902 C   0  0  0  0  0  0  0  0  0  0  0  0
   -0.0348    4.1380    7.6872 C   0  0  0  0  0  0  0  0  0  0  0  0
   -0.4363    4.8414    8.8444 C   0  0  0  0  0  0  0  0  0  0  0  0
    0.5845    4.7202    9.8598 N   0  0  0  0  0  0  0  0  0  0  0  0
    0.6759    3.5215   10.6034 C   0  0  0  0  0  0  0  0  0  0  0  0
    1.7536    5.5288    9.7967 C   0  0  0  0  0  0  0  0  0  0  0  0
   -1.7602    4.2876    9.3400 C   0  0  0  0  0  0  0  0  0  0  0  0
   -0.6693    6.2997    8.5129 C   0  0  0  0  0  0  0  0  0  0  0  0
    1.3544    1.8508    5.8138 O   0  0  0  0  0  0  0  0  0  0  0  0
    0.6970    2.2875    3.2549 C   0  0  0  0  0  0  0  0  0  0  0  0
   -0.5023    2.0106    2.4243 C   0  0  0  0  0  0  0  0  0  0  0  0
   -3.3912    2.8777    1.6384 O   0  0  0  0  0  0  0  0  0  0  0  0
   -1.0425    2.7233   -1.0982 C   0  0  0  0  0  0  0  0  0  0  0  0
   -2.9363    0.2260   -1.1757 O   0  0  0  0  0  0  0  0  0  0  0  0
   -6.2564   -1.0022    0.8210 C   0  0  0  0  0  0  0  0  0  0  0  0
   -5.4410   -0.7914    2.1302 C   0  0  0  0  0  0  0  0  0  0  0  0
   -4.4793   -1.9218    2.2586 C   0  0  0  0  0  0  0  0  0  0  0  0
   -3.7390   -1.9003    3.4987 N   0  0  0  0  0  0  0  0  0  0  0  0
   -4.5507   -1.7692    4.7116 C   0  0  0  0  0  0  0  0  0  0  0  0
   -5.6419   -0.6955    4.5331 C   0  0  0  0  0  0  0  0  0  0  0  0
   -6.3668   -0.8416    3.2565 O   0  0  0  0  0  0  0  0  0  0  0  0
   -7.1912   -0.3451   -2.1136 O   0  0  0  0  0  0  0  0  0  0  0  0
   -6.9763   -2.8682   -3.3716 C   0  0  0  0  0  0  0  0  0  0  0  0
   -7.5186   -4.2804   -3.0723 C   0  0  0  0  0  0  0  0  0  0  0  0
   -6.4353   -5.2320   -2.5360 C   0  0  0  0  0  0  0  0  0  0  0  0
   -4.5974   -6.6647   -0.8423 O   0  0  0  0  0  0  0  0  0  0  0  0
   -0.5042   -3.2229    2.3371 C   0  0  0  0  0  0  0  0  0  0  0  0
    0.2712   -3.2387    3.4996 C   0  0  0  0  0  0  0  0  0  0  0  0
   -0.3284   -2.8387    4.7446 C   0  0  0  0  0  0  0  0  0  0  0  0
   -1.6723   -2.4181    4.7112 C   0  0  0  0  0  0  0  0  0  0  0  0
   -2.4178   -2.3829    3.5216 C   0  0  0  0  0  0  0  0  0  0  0  0
   -1.8340   -2.8102    2.3200 C   0  0  0  0  0  0  0  0  0  0  0  0
   -0.1135    3.9730    1.1764 F   0  0  0  0  0  0  0  0  0  0  0  0
  1  2  1  0  0  0  0
  2  3  1  0  0  0  0
  2  5  1  0  0  0  0
  3  4  1  0  0  0  0
  5  6  4  0  0  0  0
  5 10  4  0  0  0  0
  6  7  4  0  0  0  0
  7  8  4  0  0  0  0
  8  9  4  0  0  0  0
  9 10  4  0  0  0  0
 10 11  1  0  0  0  0
 11 12  4  0  0  0  0
 11 15  4  0  0  0  0
 12 13  1  0  0  0  0
 12 68  4  0  0  0  0
 13 14  1  0  0  0  0
 15 16  1  0  0  0  0
 15 67  4  0  0  0  0
 16 17  1  0  0  0  0
 17 18  1  0  0  0  0
 17 19  1  0  0  0  0
 17 20  1  0  0  0  0
 20 21  1  0  0  0  0
 21 22  1  0  0  0  0
 22 23  1  0  0  0  0
 22 66  2  0  0  0  0
 23 24  1  0  0  0  0
 23 65  1  0  0  0  0
 24 25  1  0  0  0  0
 25 26  1  0  0  0  0
 25 63  1  0  0  0  0
 26 27  1  0  0  0  0
 26 62  2  0  0  0  0
 27 28  1  0  0  0  0
 27 55  1  0  0  0  0
 28 29  1  0  0  0  0
 29 30  1  0  0  0  0
 29 54  2  0  0  0  0
 30 31  1  0  0  0  0
 30 34  1  0  0  0  0
 31 32  1  0  0  0  0
 31 33  1  0  0  0  0
 34 35  1  0  0  0  0
 34 53  1  0  0  0  0
 35 36  1  0  0  0  0
 35 52  2  0  0  0  0
 36 37  1  0  0  0  0
 36 51  1  0  0  0  0
 36 73  1  0  0  0  0
 37 38  1  0  0  0  0
 38 39  1  0  0  0  0
 39 40  1  0  0  0  0
 39 50  1  0  0  0  0
 40 41  1  0  0  0  0
 40 49  2  0  0  0  0
 41 42  1  0  0  0  0
 42 43  1  0  0  0  0
 43 44  1  0  0  0  0
 43 47  1  0  0  0  0
 43 48  1  0  0  0  0
 44 45  1  0  0  0  0
 44 46  1  0  0  0  0
 50 51  1  0  0  0  0
 55 56  1  0  0  0  0
 56 57  1  0  0  0  0
 56 61  1  0  0  0  0
 57 58  1  0  0  0  0
 58 59  1  0  0  0  0
 58 71  1  0  0  0  0
 59 60  1  0  0  0  0
 60 61  1  0  0  0  0
 63 64  1  0  0  0  0
 64 65  1  0  0  0  0
 67 68  4  0  0  0  0
 67 72  4  0  0  0  0
 68 69  4  0  0  0  0
 69 70  4  0  0  0  0
 70 71  4  0  0  0  0
 71 72  4  0  0  0  0
M  END
$$$$
