mol_ETKDG4_217
  PyMOL3.1          3D                             0

 73 79  0  0  0  0  0  0  0  0999 V2000
   -3.4724   -0.8000   -4.5359 C   0  0  0  0  0  0  0  0  0  0  0  0
   -2.2904   -1.5476   -4.0431 C   0  0  0  0  0  0  0  0  0  0  0  0
   -2.5326   -2.9117   -3.7536 O   0  0  0  0  0  0  0  0  0  0  0  0
   -3.1311   -3.2068   -2.5209 C   0  0  0  0  0  0  0  0  0  0  0  0
   -1.1608   -1.5165   -4.9976 C   0  0  0  0  0  0  0  0  0  0  0  0
   -1.2532   -2.2641   -6.0859 N   0  0  0  0  0  0  0  0  0  0  0  0
   -0.2922   -2.2449   -7.0313 C   0  0  0  0  0  0  0  0  0  0  0  0
    0.8350   -1.4262   -6.9117 C   0  0  0  0  0  0  0  0  0  0  0  0
    0.9456   -0.6189   -5.7725 C   0  0  0  0  0  0  0  0  0  0  0  0
   -0.0492   -0.6922   -4.7970 C   0  0  0  0  0  0  0  0  0  0  0  0
    0.1113    0.0878   -3.5977 C   0  0  0  0  0  0  0  0  0  0  0  0
   -0.2851    1.3779   -3.4890 N   0  0  0  0  0  0  0  0  0  0  0  0
   -0.9583    2.2275   -4.5294 C   0  0  0  0  0  0  0  0  0  0  0  0
   -0.0411    3.1809   -5.1625 C   0  0  0  0  0  0  0  0  0  0  0  0
    0.6184   -0.3966   -2.3587 C   0  0  0  0  0  0  0  0  0  0  0  0
    1.1208   -1.7632   -1.9348 C   0  0  0  0  0  0  0  0  0  0  0  0
    2.6730   -2.0517   -2.2023 C   0  0  0  0  0  0  0  0  0  0  0  0
    2.9742   -3.4310   -1.6514 C   0  0  0  0  0  0  0  0  0  0  0  0
    2.9796   -2.1623   -3.6559 C   0  0  0  0  0  0  0  0  0  0  0  0
    3.6142   -1.0264   -1.5704 C   0  0  0  0  0  0  0  0  0  0  0  0
    4.0320   -1.2919   -0.1477 O   0  0  0  0  0  0  0  0  0  0  0  0
    5.3495   -1.1036    0.3651 C   0  0  0  0  0  0  0  0  0  0  0  0
    5.5937   -1.3505    1.8486 C   0  0  0  0  0  0  0  0  0  0  0  0
    4.5339   -2.1368    2.3958 N   0  0  0  0  0  0  0  0  0  0  0  0
    4.6028   -2.5133    3.7279 N   0  0  0  0  0  0  0  0  0  0  0  0
    3.5664   -2.2694    4.5826 C   0  0  0  0  0  0  0  0  0  0  0  0
    2.3879   -1.5024    4.0726 C   0  0  0  0  0  0  0  0  0  0  0  0
    1.1215   -2.0013    4.5804 N   0  0  0  0  0  0  0  0  0  0  0  0
    0.2382   -2.6793    3.8178 C   0  0  0  0  0  0  0  0  0  0  0  0
   -1.0893   -2.9526    4.4405 C   0  0  0  0  0  0  0  0  0  0  0  0
   -1.2555   -4.3928    5.0045 C   0  0  0  0  0  0  0  0  0  0  0  0
   -2.4076   -4.5053    5.9441 C   0  0  0  0  0  0  0  0  0  0  0  0
    0.0076   -4.9711    5.5590 C   0  0  0  0  0  0  0  0  0  0  0  0
   -2.1009   -2.6172    3.4334 N   0  0  0  0  0  0  0  0  0  0  0  0
   -2.4771   -1.2930    3.2990 C   0  0  0  0  0  0  0  0  0  0  0  0
   -3.4213   -0.7652    2.2473 C   0  0  0  0  0  0  0  0  0  0  0  0
   -3.9058    0.6670    2.5285 C   0  0  0  0  0  0  0  0  0  0  0  0
   -4.7056    1.2188    1.3798 C   0  0  0  0  0  0  0  0  0  0  0  0
   -4.0077    1.0041    0.0949 N   0  0  0  0  0  0  0  0  0  0  0  0
   -3.7795    1.9499   -0.8631 C   0  0  0  0  0  0  0  0  0  0  0  0
   -3.7391    3.3150   -0.6293 C   0  0  0  0  0  0  0  0  0  0  0  0
   -3.7248    4.4860   -0.6154 C   0  0  0  0  0  0  0  0  0  0  0  0
   -3.7640    5.8840   -0.4823 C   0  0  0  0  0  0  0  0  0  0  0  0
   -5.0018    6.3563   -1.0099 N   0  0  0  0  0  0  0  0  0  0  0  0
   -5.3801    5.9558   -2.3113 C   0  0  0  0  0  0  0  0  0  0  0  0
   -5.7665    7.3502   -0.4026 C   0  0  0  0  0  0  0  0  0  0  0  0
   -3.5852    6.2178    0.9750 C   0  0  0  0  0  0  0  0  0  0  0  0
   -2.6152    6.5499   -1.2365 C   0  0  0  0  0  0  0  0  0  0  0  0
   -3.5400    1.5740   -2.0209 O   0  0  0  0  0  0  0  0  0  0  0  0
   -3.5277   -0.3092   -0.1641 C   0  0  0  0  0  0  0  0  0  0  0  0
   -2.6467   -0.7670    0.9418 C   0  0  0  0  0  0  0  0  0  0  0  0
   -1.9722   -0.4703    4.0846 O   0  0  0  0  0  0  0  0  0  0  0  0
   -2.5860   -3.6779    2.5276 C   0  0  0  0  0  0  0  0  0  0  0  0
    0.4866   -2.9352    2.6561 O   0  0  0  0  0  0  0  0  0  0  0  0
    2.5405    0.0133    4.4823 C   0  0  0  0  0  0  0  0  0  0  0  0
    1.4378    0.9444    3.9179 C   0  0  0  0  0  0  0  0  0  0  0  0
    1.7364    1.1623    2.4703 C   0  0  0  0  0  0  0  0  0  0  0  0
    0.8358    2.1071    1.8662 N   0  0  0  0  0  0  0  0  0  0  0  0
    0.7238    3.3892    2.5826 C   0  0  0  0  0  0  0  0  0  0  0  0
    0.5282    3.1545    4.0890 C   0  0  0  0  0  0  0  0  0  0  0  0
    1.5245    2.2130    4.6186 O   0  0  0  0  0  0  0  0  0  0  0  0
    3.6005   -2.6051    5.7753 O   0  0  0  0  0  0  0  0  0  0  0  0
    5.8054   -3.2407    4.1234 C   0  0  0  0  0  0  0  0  0  0  0  0
    7.0495   -2.4813    3.6148 C   0  0  0  0  0  0  0  0  0  0  0  0
    6.9356   -2.0880    2.1363 C   0  0  0  0  0  0  0  0  0  0  0  0
    6.3183   -0.7573   -0.3315 O   0  0  0  0  0  0  0  0  0  0  0  0
    0.5085    0.7125   -1.5145 C   0  0  0  0  0  0  0  0  0  0  0  0
   -0.0336    1.7742   -2.2390 C   0  0  0  0  0  0  0  0  0  0  0  0
   -0.2584    3.0227   -1.5789 C   0  0  0  0  0  0  0  0  0  0  0  0
    0.0435    3.0940   -0.2105 C   0  0  0  0  0  0  0  0  0  0  0  0
    0.5662    2.0101    0.4958 C   0  0  0  0  0  0  0  0  0  0  0  0
    0.8083    0.7935   -0.1611 C   0  0  0  0  0  0  0  0  0  0  0  0
   -4.5510   -1.5623    2.1515 F   0  0  0  0  0  0  0  0  0  0  0  0
  1  2  1  0  0  0  0
  2  3  1  0  0  0  0
  2  5  1  0  0  0  0
  3  4  1  0  0  0  0
  5  6  4  0  0  0  0
  5 10  4  0  0  0  0
  6  7  4  0  0  0  0
  7  8  4  0  0  0  0
  8  9  4  0  0  0  0
  9 10  4  0  0  0  0
 10 11  1  0  0  0  0
 11 12  4  0  0  0  0
 11 15  4  0  0  0  0
 12 13  1  0  0  0  0
 12 68  4  0  0  0  0
 13 14  1  0  0  0  0
 15 16  1  0  0  0  0
 15 67  4  0  0  0  0
 16 17  1  0  0  0  0
 17 18  1  0  0  0  0
 17 19  1  0  0  0  0
 17 20  1  0  0  0  0
 20 21  1  0  0  0  0
 21 22  1  0  0  0  0
 22 23  1  0  0  0  0
 22 66  2  0  0  0  0
 23 24  1  0  0  0  0
 23 65  1  0  0  0  0
 24 25  1  0  0  0  0
 25 26  1  0  0  0  0
 25 63  1  0  0  0  0
 26 27  1  0  0  0  0
 26 62  2  0  0  0  0
 27 28  1  0  0  0  0
 27 55  1  0  0  0  0
 28 29  1  0  0  0  0
 29 30  1  0  0  0  0
 29 54  2  0  0  0  0
 30 31  1  0  0  0  0
 30 34  1  0  0  0  0
 31 32  1  0  0  0  0
 31 33  1  0  0  0  0
 34 35  1  0  0  0  0
 34 53  1  0  0  0  0
 35 36  1  0  0  0  0
 35 52  2  0  0  0  0
 36 37  1  0  0  0  0
 36 51  1  0  0  0  0
 36 73  1  0  0  0  0
 37 38  1  0  0  0  0
 38 39  1  0  0  0  0
 39 40  1  0  0  0  0
 39 50  1  0  0  0  0
 40 41  1  0  0  0  0
 40 49  2  0  0  0  0
 41 42  1  0  0  0  0
 42 43  1  0  0  0  0
 43 44  1  0  0  0  0
 43 47  1  0  0  0  0
 43 48  1  0  0  0  0
 44 45  1  0  0  0  0
 44 46  1  0  0  0  0
 50 51  1  0  0  0  0
 55 56  1  0  0  0  0
 56 57  1  0  0  0  0
 56 61  1  0  0  0  0
 57 58  1  0  0  0  0
 58 59  1  0  0  0  0
 58 71  1  0  0  0  0
 59 60  1  0  0  0  0
 60 61  1  0  0  0  0
 63 64  1  0  0  0  0
 64 65  1  0  0  0  0
 67 68  4  0  0  0  0
 67 72  4  0  0  0  0
 68 69  4  0  0  0  0
 69 70  4  0  0  0  0
 70 71  4  0  0  0  0
 71 72  4  0  0  0  0
M  END
$$$$
