mol_ETKDG0_307
  PyMOL3.1          3D                             0

 73 79  0  0  0  0  0  0  0  0999 V2000
    2.7252    0.7624   -5.2590 C   0  0  0  0  0  0  0  0  0  0  0  0
    1.2675    0.8773   -5.0114 C   0  0  0  0  0  0  0  0  0  0  0  0
    0.7893    2.1877   -4.7862 O   0  0  0  0  0  0  0  0  0  0  0  0
    1.1186    2.8045   -3.5642 C   0  0  0  0  0  0  0  0  0  0  0  0
    0.4677    0.3081   -6.1094 C   0  0  0  0  0  0  0  0  0  0  0  0
    0.3622    1.0141   -7.2283 N   0  0  0  0  0  0  0  0  0  0  0  0
   -0.3112    0.5332   -8.2986 C   0  0  0  0  0  0  0  0  0  0  0  0
   -0.9179   -0.7308   -8.2769 C   0  0  0  0  0  0  0  0  0  0  0  0
   -0.8061   -1.4958   -7.1084 C   0  0  0  0  0  0  0  0  0  0  0  0
   -0.1228   -0.9525   -6.0068 C   0  0  0  0  0  0  0  0  0  0  0  0
   -0.0638   -1.7245   -4.7865 C   0  0  0  0  0  0  0  0  0  0  0  0
    0.7985   -2.7535   -4.5853 N   0  0  0  0  0  0  0  0  0  0  0  0
    1.8564   -3.2570   -5.5245 C   0  0  0  0  0  0  0  0  0  0  0  0
    1.4853   -4.5139   -6.1854 C   0  0  0  0  0  0  0  0  0  0  0  0
   -0.8382   -1.4845   -3.6184 C   0  0  0  0  0  0  0  0  0  0  0  0
   -1.8420   -0.3938   -3.3079 C   0  0  0  0  0  0  0  0  0  0  0  0
   -3.3563   -0.7287   -3.6921 C   0  0  0  0  0  0  0  0  0  0  0  0
   -3.5573   -0.9862   -5.1736 C   0  0  0  0  0  0  0  0  0  0  0  0
   -4.1876    0.4980   -3.3989 C   0  0  0  0  0  0  0  0  0  0  0  0
   -3.8600   -1.9426   -2.9102 C   0  0  0  0  0  0  0  0  0  0  0  0
   -4.3377   -1.6043   -1.5126 O   0  0  0  0  0  0  0  0  0  0  0  0
   -5.6631   -1.8411   -1.0354 C   0  0  0  0  0  0  0  0  0  0  0  0
   -5.9929   -1.5010    0.4097 C   0  0  0  0  0  0  0  0  0  0  0  0
   -5.0396   -0.5569    0.9279 N   0  0  0  0  0  0  0  0  0  0  0  0
   -5.2358   -0.1174    2.2390 N   0  0  0  0  0  0  0  0  0  0  0  0
   -4.2486   -0.2248    3.1841 C   0  0  0  0  0  0  0  0  0  0  0  0
   -2.9175   -0.7894    2.7843 C   0  0  0  0  0  0  0  0  0  0  0  0
   -1.8170   -0.0712    3.4003 N   0  0  0  0  0  0  0  0  0  0  0  0
   -1.0809    0.8417    2.7428 C   0  0  0  0  0  0  0  0  0  0  0  0
    0.1266    1.3763    3.4515 C   0  0  0  0  0  0  0  0  0  0  0  0
   -0.0538    2.7557    4.1463 C   0  0  0  0  0  0  0  0  0  0  0  0
    1.0232    3.0509    5.1380 C   0  0  0  0  0  0  0  0  0  0  0  0
   -1.4275    3.0306    4.6481 C   0  0  0  0  0  0  0  0  0  0  0  0
    1.1998    1.4158    2.4556 N   0  0  0  0  0  0  0  0  0  0  0  0
    1.8871    0.2565    2.2007 C   0  0  0  0  0  0  0  0  0  0  0  0
    2.9712    0.1074    1.1702 C   0  0  0  0  0  0  0  0  0  0  0  0
    3.8927   -1.0849    1.4498 C   0  0  0  0  0  0  0  0  0  0  0  0
    4.8847   -1.2457    0.3489 C   0  0  0  0  0  0  0  0  0  0  0  0
    4.2019   -1.2851   -0.9586 N   0  0  0  0  0  0  0  0  0  0  0  0
    4.3912   -2.2788   -1.8627 C   0  0  0  0  0  0  0  0  0  0  0  0
    4.9781   -3.4670   -1.4958 C   0  0  0  0  0  0  0  0  0  0  0  0
    5.4722   -4.4929   -1.3182 C   0  0  0  0  0  0  0  0  0  0  0  0
    6.0477   -5.7264   -0.9930 C   0  0  0  0  0  0  0  0  0  0  0  0
    6.3102   -6.5140   -2.1624 N   0  0  0  0  0  0  0  0  0  0  0  0
    6.5910   -5.8623   -3.3760 C   0  0  0  0  0  0  0  0  0  0  0  0
    6.6863   -7.8614   -2.0741 C   0  0  0  0  0  0  0  0  0  0  0  0
    5.0963   -6.4507   -0.0637 C   0  0  0  0  0  0  0  0  0  0  0  0
    7.3545   -5.4911   -0.2375 C   0  0  0  0  0  0  0  0  0  0  0  0
    3.9829   -2.1453   -3.0305 O   0  0  0  0  0  0  0  0  0  0  0  0
    3.2868   -0.2206   -1.2593 C   0  0  0  0  0  0  0  0  0  0  0  0
    2.2746   -0.0954   -0.1743 C   0  0  0  0  0  0  0  0  0  0  0  0
    1.5653   -0.7541    2.8584 O   0  0  0  0  0  0  0  0  0  0  0  0
    1.4052    2.6542    1.6716 C   0  0  0  0  0  0  0  0  0  0  0  0
   -1.3369    1.0969    1.5740 O   0  0  0  0  0  0  0  0  0  0  0  0
   -2.8100   -2.3235    3.1640 C   0  0  0  0  0  0  0  0  0  0  0  0
   -1.5017   -3.0150    2.6656 C   0  0  0  0  0  0  0  0  0  0  0  0
   -1.6489   -3.2498    1.1994 C   0  0  0  0  0  0  0  0  0  0  0  0
   -0.5325   -3.9779    0.6391 N   0  0  0  0  0  0  0  0  0  0  0  0
   -0.1854   -5.2213    1.3441 C   0  0  0  0  0  0  0  0  0  0  0  0
   -0.1676   -5.0021    2.8719 C   0  0  0  0  0  0  0  0  0  0  0  0
   -1.3719   -4.2969    3.3416 O   0  0  0  0  0  0  0  0  0  0  0  0
   -4.4388    0.1118    4.3708 O   0  0  0  0  0  0  0  0  0  0  0  0
   -6.5311    0.5210    2.4999 C   0  0  0  0  0  0  0  0  0  0  0  0
   -7.6631   -0.4133    2.0025 C   0  0  0  0  0  0  0  0  0  0  0  0
   -7.4183   -0.8928    0.5673 C   0  0  0  0  0  0  0  0  0  0  0  0
   -6.5863   -2.3157   -1.7366 O   0  0  0  0  0  0  0  0  0  0  0  0
   -0.3994   -2.4815   -2.7216 C   0  0  0  0  0  0  0  0  0  0  0  0
    0.5921   -3.2303   -3.3508 C   0  0  0  0  0  0  0  0  0  0  0  0
    1.2318   -4.3003   -2.6327 C   0  0  0  0  0  0  0  0  0  0  0  0
    0.8336   -4.5132   -1.3081 C   0  0  0  0  0  0  0  0  0  0  0  0
   -0.1615   -3.7461   -0.6925 C   0  0  0  0  0  0  0  0  0  0  0  0
   -0.7877   -2.7057   -1.4071 C   0  0  0  0  0  0  0  0  0  0  0  0
    3.7834    1.2215    1.1231 F   0  0  0  0  0  0  0  0  0  0  0  0
  1  2  1  0  0  0  0
  2  3  1  0  0  0  0
  2  5  1  0  0  0  0
  3  4  1  0  0  0  0
  5  6  4  0  0  0  0
  5 10  4  0  0  0  0
  6  7  4  0  0  0  0
  7  8  4  0  0  0  0
  8  9  4  0  0  0  0
  9 10  4  0  0  0  0
 10 11  1  0  0  0  0
 11 12  4  0  0  0  0
 11 15  4  0  0  0  0
 12 13  1  0  0  0  0
 12 68  4  0  0  0  0
 13 14  1  0  0  0  0
 15 16  1  0  0  0  0
 15 67  4  0  0  0  0
 16 17  1  0  0  0  0
 17 18  1  0  0  0  0
 17 19  1  0  0  0  0
 17 20  1  0  0  0  0
 20 21  1  0  0  0  0
 21 22  1  0  0  0  0
 22 23  1  0  0  0  0
 22 66  2  0  0  0  0
 23 24  1  0  0  0  0
 23 65  1  0  0  0  0
 24 25  1  0  0  0  0
 25 26  1  0  0  0  0
 25 63  1  0  0  0  0
 26 27  1  0  0  0  0
 26 62  2  0  0  0  0
 27 28  1  0  0  0  0
 27 55  1  0  0  0  0
 28 29  1  0  0  0  0
 29 30  1  0  0  0  0
 29 54  2  0  0  0  0
 30 31  1  0  0  0  0
 30 34  1  0  0  0  0
 31 32  1  0  0  0  0
 31 33  1  0  0  0  0
 34 35  1  0  0  0  0
 34 53  1  0  0  0  0
 35 36  1  0  0  0  0
 35 52  2  0  0  0  0
 36 37  1  0  0  0  0
 36 51  1  0  0  0  0
 36 73  1  0  0  0  0
 37 38  1  0  0  0  0
 38 39  1  0  0  0  0
 39 40  1  0  0  0  0
 39 50  1  0  0  0  0
 40 41  1  0  0  0  0
 40 49  2  0  0  0  0
 41 42  1  0  0  0  0
 42 43  1  0  0  0  0
 43 44  1  0  0  0  0
 43 47  1  0  0  0  0
 43 48  1  0  0  0  0
 44 45  1  0  0  0  0
 44 46  1  0  0  0  0
 50 51  1  0  0  0  0
 55 56  1  0  0  0  0
 56 57  1  0  0  0  0
 56 61  1  0  0  0  0
 57 58  1  0  0  0  0
 58 59  1  0  0  0  0
 58 71  1  0  0  0  0
 59 60  1  0  0  0  0
 60 61  1  0  0  0  0
 63 64  1  0  0  0  0
 64 65  1  0  0  0  0
 67 68  4  0  0  0  0
 67 72  4  0  0  0  0
 68 69  4  0  0  0  0
 69 70  4  0  0  0  0
 70 71  4  0  0  0  0
 71 72  4  0  0  0  0
M  END
$$$$
