mol_ETKDG0_347
  PyMOL3.1          3D                             0

 73 79  0  0  0  0  0  0  0  0999 V2000
   -0.4892   -3.9224    3.5840 C   0  0  0  0  0  0  0  0  0  0  0  0
    0.8350   -3.4597    3.1274 C   0  0  0  0  0  0  0  0  0  0  0  0
    1.4917   -4.2941    2.2061 O   0  0  0  0  0  0  0  0  0  0  0  0
    0.9159   -4.3979    0.9152 C   0  0  0  0  0  0  0  0  0  0  0  0
    1.7560   -3.1971    4.2463 C   0  0  0  0  0  0  0  0  0  0  0  0
    2.3129   -4.2272    4.8540 N   0  0  0  0  0  0  0  0  0  0  0  0
    3.1016   -4.0559    5.9355 C   0  0  0  0  0  0  0  0  0  0  0  0
    3.3635   -2.7844    6.4579 C   0  0  0  0  0  0  0  0  0  0  0  0
    2.7708   -1.6793    5.8349 C   0  0  0  0  0  0  0  0  0  0  0  0
    1.9827   -1.9018    4.7003 C   0  0  0  0  0  0  0  0  0  0  0  0
    1.4312   -0.7652    4.0095 C   0  0  0  0  0  0  0  0  0  0  0  0
    0.3009   -0.1169    4.3880 N   0  0  0  0  0  0  0  0  0  0  0  0
   -0.5896   -0.4305    5.5542 C   0  0  0  0  0  0  0  0  0  0  0  0
   -0.4080    0.5072    6.6684 C   0  0  0  0  0  0  0  0  0  0  0  0
    1.9379   -0.2265    2.8032 C   0  0  0  0  0  0  0  0  0  0  0  0
    3.0815   -0.6689    1.9328 C   0  0  0  0  0  0  0  0  0  0  0  0
    4.4891   -0.0381    2.2975 C   0  0  0  0  0  0  0  0  0  0  0  0
    4.9845   -0.4198    3.6683 C   0  0  0  0  0  0  0  0  0  0  0  0
    5.5002   -0.6331    1.3582 C   0  0  0  0  0  0  0  0  0  0  0  0
    4.4495    1.4838    2.1958 C   0  0  0  0  0  0  0  0  0  0  0  0
    4.6537    1.9703    0.7870 O   0  0  0  0  0  0  0  0  0  0  0  0
    5.7612    2.7474    0.3599 C   0  0  0  0  0  0  0  0  0  0  0  0
    5.8322    3.1391   -1.1021 C   0  0  0  0  0  0  0  0  0  0  0  0
    5.0710    2.1992   -1.8709 N   0  0  0  0  0  0  0  0  0  0  0  0
    5.0777    2.3479   -3.2485 N   0  0  0  0  0  0  0  0  0  0  0  0
    3.9161    2.4235   -3.9590 C   0  0  0  0  0  0  0  0  0  0  0  0
    2.6181    2.3315   -3.2246 C   0  0  0  0  0  0  0  0  0  0  0  0
    1.6556    1.5413   -3.9567 N   0  0  0  0  0  0  0  0  0  0  0  0
    1.3813    0.2748   -3.6416 C   0  0  0  0  0  0  0  0  0  0  0  0
    0.2644   -0.3623   -4.3949 C   0  0  0  0  0  0  0  0  0  0  0  0
    0.7424   -1.3508   -5.5069 C   0  0  0  0  0  0  0  0  0  0  0  0
   -0.3840   -1.8695   -6.3383 C   0  0  0  0  0  0  0  0  0  0  0  0
    1.8590   -0.7904   -6.3322 C   0  0  0  0  0  0  0  0  0  0  0  0
   -0.5730   -1.0223   -3.3972 N   0  0  0  0  0  0  0  0  0  0  0  0
   -1.5156   -0.2789   -2.7370 C   0  0  0  0  0  0  0  0  0  0  0  0
   -2.3958   -0.8205   -1.6442 C   0  0  0  0  0  0  0  0  0  0  0  0
   -3.5885    0.0749   -1.2892 C   0  0  0  0  0  0  0  0  0  0  0  0
   -4.3482   -0.4946   -0.1337 C   0  0  0  0  0  0  0  0  0  0  0  0
   -3.4475   -0.8401    0.9865 N   0  0  0  0  0  0  0  0  0  0  0  0
   -3.6828   -0.5325    2.2877 C   0  0  0  0  0  0  0  0  0  0  0  0
   -4.7150    0.2703    2.6877 C   0  0  0  0  0  0  0  0  0  0  0  0
   -5.5917    0.8584    3.1608 C   0  0  0  0  0  0  0  0  0  0  0  0
   -6.7204    1.6168    3.5026 C   0  0  0  0  0  0  0  0  0  0  0  0
   -7.9174    0.8363    3.5140 N   0  0  0  0  0  0  0  0  0  0  0  0
   -7.8710   -0.5389    3.7685 C   0  0  0  0  0  0  0  0  0  0  0  0
   -9.1914    1.4331    3.5645 C   0  0  0  0  0  0  0  0  0  0  0  0
   -6.5293    2.2421    4.8751 C   0  0  0  0  0  0  0  0  0  0  0  0
   -6.8564    2.7353    2.4861 C   0  0  0  0  0  0  0  0  0  0  0  0
   -2.9158   -0.9817    3.1623 O   0  0  0  0  0  0  0  0  0  0  0  0
   -2.2639   -1.5663    0.6818 C   0  0  0  0  0  0  0  0  0  0  0  0
   -1.5162   -0.9520   -0.4173 C   0  0  0  0  0  0  0  0  0  0  0  0
   -1.6225    0.9246   -3.0397 O   0  0  0  0  0  0  0  0  0  0  0  0
   -0.2839   -2.4264   -3.0493 C   0  0  0  0  0  0  0  0  0  0  0  0
    1.9537   -0.2655   -2.7075 O   0  0  0  0  0  0  0  0  0  0  0  0
    2.0161    3.7612   -2.9513 C   0  0  0  0  0  0  0  0  0  0  0  0
    0.7132    3.7412   -2.1022 C   0  0  0  0  0  0  0  0  0  0  0  0
    1.1060    3.4095   -0.7156 C   0  0  0  0  0  0  0  0  0  0  0  0
   -0.0088    3.4506    0.1967 N   0  0  0  0  0  0  0  0  0  0  0  0
   -0.7908    4.6894    0.1711 C   0  0  0  0  0  0  0  0  0  0  0  0
   -1.0841    5.1110   -1.2800 C   0  0  0  0  0  0  0  0  0  0  0  0
    0.1200    5.0692   -2.1229 O   0  0  0  0  0  0  0  0  0  0  0  0
    3.9112    2.5913   -5.1889 O   0  0  0  0  0  0  0  0  0  0  0  0
    6.3972    2.3397   -3.8844 C   0  0  0  0  0  0  0  0  0  0  0  0
    7.3125    3.3463   -3.1549 C   0  0  0  0  0  0  0  0  0  0  0  0
    7.2945    3.1404   -1.6392 C   0  0  0  0  0  0  0  0  0  0  0  0
    6.6840    3.1480    1.1064 O   0  0  0  0  0  0  0  0  0  0  0  0
    1.0489    0.8207    2.5131 C   0  0  0  0  0  0  0  0  0  0  0  0
    0.0662    0.8547    3.4971 C   0  0  0  0  0  0  0  0  0  0  0  0
   -0.9896    1.8210    3.3997 C   0  0  0  0  0  0  0  0  0  0  0  0
   -0.9860    2.6630    2.2837 C   0  0  0  0  0  0  0  0  0  0  0  0
    0.0164    2.6035    1.3090 C   0  0  0  0  0  0  0  0  0  0  0  0
    1.0451    1.6631    1.4188 C   0  0  0  0  0  0  0  0  0  0  0  0
   -2.9321   -2.0477   -2.0143 F   0  0  0  0  0  0  0  0  0  0  0  0
  1  2  1  0  0  0  0
  2  3  1  0  0  0  0
  2  5  1  0  0  0  0
  3  4  1  0  0  0  0
  5  6  4  0  0  0  0
  5 10  4  0  0  0  0
  6  7  4  0  0  0  0
  7  8  4  0  0  0  0
  8  9  4  0  0  0  0
  9 10  4  0  0  0  0
 10 11  1  0  0  0  0
 11 12  4  0  0  0  0
 11 15  4  0  0  0  0
 12 13  1  0  0  0  0
 12 68  4  0  0  0  0
 13 14  1  0  0  0  0
 15 16  1  0  0  0  0
 15 67  4  0  0  0  0
 16 17  1  0  0  0  0
 17 18  1  0  0  0  0
 17 19  1  0  0  0  0
 17 20  1  0  0  0  0
 20 21  1  0  0  0  0
 21 22  1  0  0  0  0
 22 23  1  0  0  0  0
 22 66  2  0  0  0  0
 23 24  1  0  0  0  0
 23 65  1  0  0  0  0
 24 25  1  0  0  0  0
 25 26  1  0  0  0  0
 25 63  1  0  0  0  0
 26 27  1  0  0  0  0
 26 62  2  0  0  0  0
 27 28  1  0  0  0  0
 27 55  1  0  0  0  0
 28 29  1  0  0  0  0
 29 30  1  0  0  0  0
 29 54  2  0  0  0  0
 30 31  1  0  0  0  0
 30 34  1  0  0  0  0
 31 32  1  0  0  0  0
 31 33  1  0  0  0  0
 34 35  1  0  0  0  0
 34 53  1  0  0  0  0
 35 36  1  0  0  0  0
 35 52  2  0  0  0  0
 36 37  1  0  0  0  0
 36 51  1  0  0  0  0
 36 73  1  0  0  0  0
 37 38  1  0  0  0  0
 38 39  1  0  0  0  0
 39 40  1  0  0  0  0
 39 50  1  0  0  0  0
 40 41  1  0  0  0  0
 40 49  2  0  0  0  0
 41 42  1  0  0  0  0
 42 43  1  0  0  0  0
 43 44  1  0  0  0  0
 43 47  1  0  0  0  0
 43 48  1  0  0  0  0
 44 45  1  0  0  0  0
 44 46  1  0  0  0  0
 50 51  1  0  0  0  0
 55 56  1  0  0  0  0
 56 57  1  0  0  0  0
 56 61  1  0  0  0  0
 57 58  1  0  0  0  0
 58 59  1  0  0  0  0
 58 71  1  0  0  0  0
 59 60  1  0  0  0  0
 60 61  1  0  0  0  0
 63 64  1  0  0  0  0
 64 65  1  0  0  0  0
 67 68  4  0  0  0  0
 67 72  4  0  0  0  0
 68 69  4  0  0  0  0
 69 70  4  0  0  0  0
 70 71  4  0  0  0  0
 71 72  4  0  0  0  0
M  END
$$$$
