mol_ETKDG4_210
  PyMOL3.1          3D                             0

 73 79  0  0  0  0  0  0  0  0999 V2000
   -2.9244    4.3096   -3.3339 C   0  0  0  0  0  0  0  0  0  0  0  0
   -3.5659    3.3598   -2.4040 C   0  0  0  0  0  0  0  0  0  0  0  0
   -4.3764    3.9583   -1.4057 O   0  0  0  0  0  0  0  0  0  0  0  0
   -3.7483    4.7065   -0.4043 C   0  0  0  0  0  0  0  0  0  0  0  0
   -4.3932    2.3649   -3.0974 C   0  0  0  0  0  0  0  0  0  0  0  0
   -5.6267    2.7220   -3.4215 N   0  0  0  0  0  0  0  0  0  0  0  0
   -6.4474    1.8889   -4.0904 C   0  0  0  0  0  0  0  0  0  0  0  0
   -6.0348    0.6136   -4.4791 C   0  0  0  0  0  0  0  0  0  0  0  0
   -4.7334    0.2164   -4.1558 C   0  0  0  0  0  0  0  0  0  0  0  0
   -3.9105    1.1037   -3.4511 C   0  0  0  0  0  0  0  0  0  0  0  0
   -2.5809    0.6550   -3.1166 C   0  0  0  0  0  0  0  0  0  0  0  0
   -1.5878    0.5490   -4.0296 N   0  0  0  0  0  0  0  0  0  0  0  0
   -1.6396    0.9322   -5.4805 C   0  0  0  0  0  0  0  0  0  0  0  0
   -1.6776   -0.2157   -6.3851 C   0  0  0  0  0  0  0  0  0  0  0  0
   -2.1014    0.2956   -1.8278 C   0  0  0  0  0  0  0  0  0  0  0  0
   -2.7557    0.4011   -0.4793 C   0  0  0  0  0  0  0  0  0  0  0  0
   -3.6539   -0.8143   -0.0501 C   0  0  0  0  0  0  0  0  0  0  0  0
   -4.4349   -0.4105    1.1994 C   0  0  0  0  0  0  0  0  0  0  0  0
   -4.6925   -1.1473   -1.0537 C   0  0  0  0  0  0  0  0  0  0  0  0
   -2.7926   -2.0217    0.2020 C   0  0  0  0  0  0  0  0  0  0  0  0
   -2.0344   -2.0422    1.5125 O   0  0  0  0  0  0  0  0  0  0  0  0
   -2.0645   -3.1363    2.4239 C   0  0  0  0  0  0  0  0  0  0  0  0
   -1.1881   -3.1040    3.6561 C   0  0  0  0  0  0  0  0  0  0  0  0
   -0.6820   -1.7883    3.9177 N   0  0  0  0  0  0  0  0  0  0  0  0
    0.1252   -1.6417    5.0498 N   0  0  0  0  0  0  0  0  0  0  0  0
    1.3756   -1.0933    4.9754 C   0  0  0  0  0  0  0  0  0  0  0  0
    1.8773   -0.6147    3.6425 C   0  0  0  0  0  0  0  0  0  0  0  0
    2.6163    0.6233    3.7598 N   0  0  0  0  0  0  0  0  0  0  0  0
    2.1028    1.8022    3.3844 C   0  0  0  0  0  0  0  0  0  0  0  0
    3.0375    2.9623    3.3736 C   0  0  0  0  0  0  0  0  0  0  0  0
    3.0205    3.8581    4.6416 C   0  0  0  0  0  0  0  0  0  0  0  0
    4.2506    4.6846    4.7986 C   0  0  0  0  0  0  0  0  0  0  0  0
    2.5720    3.1900    5.8917 C   0  0  0  0  0  0  0  0  0  0  0  0
    2.7293    3.7201    2.1653 N   0  0  0  0  0  0  0  0  0  0  0  0
    3.2408    3.2812    0.9633 C   0  0  0  0  0  0  0  0  0  0  0  0
    2.9297    3.9014   -0.3710 C   0  0  0  0  0  0  0  0  0  0  0  0
    3.8326    3.4286   -1.5180 C   0  0  0  0  0  0  0  0  0  0  0  0
    3.4003    4.0308   -2.8165 C   0  0  0  0  0  0  0  0  0  0  0  0
    1.9477    3.8620   -3.0411 N   0  0  0  0  0  0  0  0  0  0  0  0
    1.3988    3.4747   -4.2201 C   0  0  0  0  0  0  0  0  0  0  0  0
    2.1567    3.0780   -5.3047 C   0  0  0  0  0  0  0  0  0  0  0  0
    2.6457    2.8078   -6.3172 C   0  0  0  0  0  0  0  0  0  0  0  0
    3.4330    2.4798   -7.4351 C   0  0  0  0  0  0  0  0  0  0  0  0
    3.8567    3.6753   -8.0876 N   0  0  0  0  0  0  0  0  0  0  0  0
    4.8445    4.4789   -7.4964 C   0  0  0  0  0  0  0  0  0  0  0  0
    3.2948    4.1213   -9.2979 C   0  0  0  0  0  0  0  0  0  0  0  0
    4.6541    1.6730   -6.9951 C   0  0  0  0  0  0  0  0  0  0  0  0
    2.6580    1.5999   -8.3847 C   0  0  0  0  0  0  0  0  0  0  0  0
    0.1570    3.4592   -4.3375 O   0  0  0  0  0  0  0  0  0  0  0  0
    1.0694    4.1443   -1.9536 C   0  0  0  0  0  0  0  0  0  0  0  0
    1.5034    3.5024   -0.7098 C   0  0  0  0  0  0  0  0  0  0  0  0
    3.9907    2.2823    0.9886 O   0  0  0  0  0  0  0  0  0  0  0  0
    1.7908    4.8571    2.2633 C   0  0  0  0  0  0  0  0  0  0  0  0
    0.9570    1.8717    2.9580 O   0  0  0  0  0  0  0  0  0  0  0  0
    2.8137   -1.7033    2.9817 C   0  0  0  0  0  0  0  0  0  0  0  0
    3.2827   -1.3475    1.5400 C   0  0  0  0  0  0  0  0  0  0  0  0
    2.1160   -1.5101    0.6286 C   0  0  0  0  0  0  0  0  0  0  0  0
    2.4667   -1.3111   -0.7560 N   0  0  0  0  0  0  0  0  0  0  0  0
    3.6305   -2.0819   -1.2225 C   0  0  0  0  0  0  0  0  0  0  0  0
    4.7836   -2.0230   -0.2069 C   0  0  0  0  0  0  0  0  0  0  0  0
    4.3274   -2.2815    1.1631 O   0  0  0  0  0  0  0  0  0  0  0  0
    2.1123   -1.0095    5.9695 O   0  0  0  0  0  0  0  0  0  0  0  0
   -0.4805   -2.0446    6.3247 C   0  0  0  0  0  0  0  0  0  0  0  0
   -1.0667   -3.4606    6.1757 C   0  0  0  0  0  0  0  0  0  0  0  0
   -1.9367   -3.6016    4.9291 C   0  0  0  0  0  0  0  0  0  0  0  0
   -2.7820   -4.1577    2.2905 O   0  0  0  0  0  0  0  0  0  0  0  0
   -0.7732   -0.1024   -2.0542 C   0  0  0  0  0  0  0  0  0  0  0  0
   -0.4938    0.0774   -3.4059 C   0  0  0  0  0  0  0  0  0  0  0  0
    0.8260   -0.1995   -3.9007 C   0  0  0  0  0  0  0  0  0  0  0  0
    1.7779   -0.6436   -2.9844 C   0  0  0  0  0  0  0  0  0  0  0  0
    1.4832   -0.8447   -1.6422 C   0  0  0  0  0  0  0  0  0  0  0  0
    0.1882   -0.5520   -1.1467 C   0  0  0  0  0  0  0  0  0  0  0  0
    3.0714    5.2734   -0.2946 F   0  0  0  0  0  0  0  0  0  0  0  0
  1  2  1  0  0  0  0
  2  3  1  0  0  0  0
  2  5  1  0  0  0  0
  3  4  1  0  0  0  0
  5  6  4  0  0  0  0
  5 10  4  0  0  0  0
  6  7  4  0  0  0  0
  7  8  4  0  0  0  0
  8  9  4  0  0  0  0
  9 10  4  0  0  0  0
 10 11  1  0  0  0  0
 11 12  4  0  0  0  0
 11 15  4  0  0  0  0
 12 13  1  0  0  0  0
 12 68  4  0  0  0  0
 13 14  1  0  0  0  0
 15 16  1  0  0  0  0
 15 67  4  0  0  0  0
 16 17  1  0  0  0  0
 17 18  1  0  0  0  0
 17 19  1  0  0  0  0
 17 20  1  0  0  0  0
 20 21  1  0  0  0  0
 21 22  1  0  0  0  0
 22 23  1  0  0  0  0
 22 66  2  0  0  0  0
 23 24  1  0  0  0  0
 23 65  1  0  0  0  0
 24 25  1  0  0  0  0
 25 26  1  0  0  0  0
 25 63  1  0  0  0  0
 26 27  1  0  0  0  0
 26 62  2  0  0  0  0
 27 28  1  0  0  0  0
 27 55  1  0  0  0  0
 28 29  1  0  0  0  0
 29 30  1  0  0  0  0
 29 54  2  0  0  0  0
 30 31  1  0  0  0  0
 30 34  1  0  0  0  0
 31 32  1  0  0  0  0
 31 33  1  0  0  0  0
 34 35  1  0  0  0  0
 34 53  1  0  0  0  0
 35 36  1  0  0  0  0
 35 52  2  0  0  0  0
 36 37  1  0  0  0  0
 36 51  1  0  0  0  0
 36 73  1  0  0  0  0
 37 38  1  0  0  0  0
 38 39  1  0  0  0  0
 39 40  1  0  0  0  0
 39 50  1  0  0  0  0
 40 41  1  0  0  0  0
 40 49  2  0  0  0  0
 41 42  1  0  0  0  0
 42 43  1  0  0  0  0
 43 44  1  0  0  0  0
 43 47  1  0  0  0  0
 43 48  1  0  0  0  0
 44 45  1  0  0  0  0
 44 46  1  0  0  0  0
 50 51  1  0  0  0  0
 55 56  1  0  0  0  0
 56 57  1  0  0  0  0
 56 61  1  0  0  0  0
 57 58  1  0  0  0  0
 58 59  1  0  0  0  0
 58 71  1  0  0  0  0
 59 60  1  0  0  0  0
 60 61  1  0  0  0  0
 63 64  1  0  0  0  0
 64 65  1  0  0  0  0
 67 68  4  0  0  0  0
 67 72  4  0  0  0  0
 68 69  4  0  0  0  0
 69 70  4  0  0  0  0
 70 71  4  0  0  0  0
 71 72  4  0  0  0  0
M  END
$$$$
