mol_ETKDG1_65
  PyMOL3.1          3D                             0

 73 79  0  0  0  0  0  0  0  0999 V2000
    1.6588    1.9001    1.5488 C   0  0  0  0  0  0  0  0  0  0  0  0
    0.3648    2.5590    1.2435 C   0  0  0  0  0  0  0  0  0  0  0  0
   -0.3809    2.9766    2.3722 O   0  0  0  0  0  0  0  0  0  0  0  0
   -0.9647    1.9714    3.1764 C   0  0  0  0  0  0  0  0  0  0  0  0
    0.5132    3.7265    0.3433 C   0  0  0  0  0  0  0  0  0  0  0  0
    0.9453    4.8644    0.8676 N   0  0  0  0  0  0  0  0  0  0  0  0
    1.1682    5.9560    0.0996 C   0  0  0  0  0  0  0  0  0  0  0  0
    0.9643    5.9303   -1.2845 C   0  0  0  0  0  0  0  0  0  0  0  0
    0.5202    4.7309   -1.8622 C   0  0  0  0  0  0  0  0  0  0  0  0
    0.2653    3.6320   -1.0248 C   0  0  0  0  0  0  0  0  0  0  0  0
   -0.2472    2.4210   -1.6216 C   0  0  0  0  0  0  0  0  0  0  0  0
    0.5498    1.4652   -2.1732 N   0  0  0  0  0  0  0  0  0  0  0  0
    2.0573    1.4420   -2.2442 C   0  0  0  0  0  0  0  0  0  0  0  0
    2.5823    1.7731   -3.5726 C   0  0  0  0  0  0  0  0  0  0  0  0
   -1.6180    2.0132   -1.6433 C   0  0  0  0  0  0  0  0  0  0  0  0
   -2.8624    2.6202   -1.0316 C   0  0  0  0  0  0  0  0  0  0  0  0
   -3.6727    3.6993   -1.8814 C   0  0  0  0  0  0  0  0  0  0  0  0
   -2.8737    4.9727   -2.1083 C   0  0  0  0  0  0  0  0  0  0  0  0
   -4.8432    4.1274   -1.0332 C   0  0  0  0  0  0  0  0  0  0  0  0
   -4.1713    3.1935   -3.2463 C   0  0  0  0  0  0  0  0  0  0  0  0
   -5.5230    2.5247   -3.2676 O   0  0  0  0  0  0  0  0  0  0  0  0
   -6.5556    2.7778   -4.2273 C   0  0  0  0  0  0  0  0  0  0  0  0
   -7.8435    1.9600   -4.1695 C   0  0  0  0  0  0  0  0  0  0  0  0
   -7.9590    1.2767   -2.9194 N   0  0  0  0  0  0  0  0  0  0  0  0
   -9.0931    0.4977   -2.6899 N   0  0  0  0  0  0  0  0  0  0  0  0
   -8.9867   -0.8172   -2.2996 C   0  0  0  0  0  0  0  0  0  0  0  0
   -7.6179   -1.4070   -2.1080 C   0  0  0  0  0  0  0  0  0  0  0  0
   -7.5826   -2.2936   -0.9646 N   0  0  0  0  0  0  0  0  0  0  0  0
   -7.0708   -1.9404    0.2266 C   0  0  0  0  0  0  0  0  0  0  0  0
   -6.9515   -3.0292    1.2513 C   0  0  0  0  0  0  0  0  0  0  0  0
   -8.0420   -2.9954    2.3758 C   0  0  0  0  0  0  0  0  0  0  0  0
   -8.0547   -4.2524    3.1944 C   0  0  0  0  0  0  0  0  0  0  0  0
   -9.4027   -2.6315    1.8692 C   0  0  0  0  0  0  0  0  0  0  0  0
   -5.5907   -2.9318    1.7831 N   0  0  0  0  0  0  0  0  0  0  0  0
   -4.5676   -3.5237    1.0799 C   0  0  0  0  0  0  0  0  0  0  0  0
   -3.1070   -3.4264    1.4496 C   0  0  0  0  0  0  0  0  0  0  0  0
   -2.6357   -2.0618    0.9863 C   0  0  0  0  0  0  0  0  0  0  0  0
   -1.2028   -1.8345    1.3194 C   0  0  0  0  0  0  0  0  0  0  0  0
   -0.3991   -2.9278    0.7513 N   0  0  0  0  0  0  0  0  0  0  0  0
    0.6974   -2.6647   -0.0298 C   0  0  0  0  0  0  0  0  0  0  0  0
    1.2815   -3.6798   -0.7665 C   0  0  0  0  0  0  0  0  0  0  0  0
    1.8655   -4.4863   -1.3370 C   0  0  0  0  0  0  0  0  0  0  0  0
    2.4195   -5.6723   -1.8858 C   0  0  0  0  0  0  0  0  0  0  0  0
    3.5554   -6.0594   -1.0832 N   0  0  0  0  0  0  0  0  0  0  0  0
    4.8345   -5.5209   -1.3617 C   0  0  0  0  0  0  0  0  0  0  0  0
    3.3398   -6.5293    0.2487 C   0  0  0  0  0  0  0  0  0  0  0  0
    2.8111   -5.4456   -3.3287 C   0  0  0  0  0  0  0  0  0  0  0  0
    1.3844   -6.7980   -1.8925 C   0  0  0  0  0  0  0  0  0  0  0  0
    1.1704   -1.5265   -0.1007 O   0  0  0  0  0  0  0  0  0  0  0  0
   -0.8167   -4.2747    1.0554 C   0  0  0  0  0  0  0  0  0  0  0  0
   -2.2476   -4.5059    0.7732 C   0  0  0  0  0  0  0  0  0  0  0  0
   -4.8707   -4.1555    0.0461 O   0  0  0  0  0  0  0  0  0  0  0  0
   -5.3481   -2.0887    2.9737 C   0  0  0  0  0  0  0  0  0  0  0  0
   -6.6178   -0.8142    0.3899 O   0  0  0  0  0  0  0  0  0  0  0  0
   -7.1642   -2.2172   -3.3871 C   0  0  0  0  0  0  0  0  0  0  0  0
   -5.7307   -2.8173   -3.2753 C   0  0  0  0  0  0  0  0  0  0  0  0
   -4.7482   -1.7151   -3.4955 C   0  0  0  0  0  0  0  0  0  0  0  0
   -3.3802   -2.1958   -3.5251 N   0  0  0  0  0  0  0  0  0  0  0  0
   -3.1555   -3.3180   -4.4608 C   0  0  0  0  0  0  0  0  0  0  0  0
   -4.2353   -4.4008   -4.2814 C   0  0  0  0  0  0  0  0  0  0  0  0
   -5.5870   -3.8194   -4.3089 O   0  0  0  0  0  0  0  0  0  0  0  0
   -9.9954   -1.5352   -2.1307 O   0  0  0  0  0  0  0  0  0  0  0  0
  -10.3737    1.1968   -2.8255 C   0  0  0  0  0  0  0  0  0  0  0  0
  -10.3961    1.9803   -4.1548 C   0  0  0  0  0  0  0  0  0  0  0  0
   -9.1304    2.8150   -4.3788 C   0  0  0  0  0  0  0  0  0  0  0  0
   -6.4569    3.6376   -5.1190 O   0  0  0  0  0  0  0  0  0  0  0  0
   -1.5765    0.7732   -2.3060 C   0  0  0  0  0  0  0  0  0  0  0  0
   -0.2438    0.4715   -2.6073 C   0  0  0  0  0  0  0  0  0  0  0  0
    0.0670   -0.7785   -3.2435 C   0  0  0  0  0  0  0  0  0  0  0  0
   -1.0040   -1.6428   -3.5166 C   0  0  0  0  0  0  0  0  0  0  0  0
   -2.3344   -1.3086   -3.2197 C   0  0  0  0  0  0  0  0  0  0  0  0
   -2.6273   -0.0902   -2.5893 C   0  0  0  0  0  0  0  0  0  0  0  0
   -2.9251   -3.6116    2.8112 F   0  0  0  0  0  0  0  0  0  0  0  0
  1  2  1  0  0  0  0
  2  3  1  0  0  0  0
  2  5  1  0  0  0  0
  3  4  1  0  0  0  0
  5  6  4  0  0  0  0
  5 10  4  0  0  0  0
  6  7  4  0  0  0  0
  7  8  4  0  0  0  0
  8  9  4  0  0  0  0
  9 10  4  0  0  0  0
 10 11  1  0  0  0  0
 11 12  4  0  0  0  0
 11 15  4  0  0  0  0
 12 13  1  0  0  0  0
 12 68  4  0  0  0  0
 13 14  1  0  0  0  0
 15 16  1  0  0  0  0
 15 67  4  0  0  0  0
 16 17  1  0  0  0  0
 17 18  1  0  0  0  0
 17 19  1  0  0  0  0
 17 20  1  0  0  0  0
 20 21  1  0  0  0  0
 21 22  1  0  0  0  0
 22 23  1  0  0  0  0
 22 66  2  0  0  0  0
 23 24  1  0  0  0  0
 23 65  1  0  0  0  0
 24 25  1  0  0  0  0
 25 26  1  0  0  0  0
 25 63  1  0  0  0  0
 26 27  1  0  0  0  0
 26 62  2  0  0  0  0
 27 28  1  0  0  0  0
 27 55  1  0  0  0  0
 28 29  1  0  0  0  0
 29 30  1  0  0  0  0
 29 54  2  0  0  0  0
 30 31  1  0  0  0  0
 30 34  1  0  0  0  0
 31 32  1  0  0  0  0
 31 33  1  0  0  0  0
 34 35  1  0  0  0  0
 34 53  1  0  0  0  0
 35 36  1  0  0  0  0
 35 52  2  0  0  0  0
 36 37  1  0  0  0  0
 36 51  1  0  0  0  0
 36 73  1  0  0  0  0
 37 38  1  0  0  0  0
 38 39  1  0  0  0  0
 39 40  1  0  0  0  0
 39 50  1  0  0  0  0
 40 41  1  0  0  0  0
 40 49  2  0  0  0  0
 41 42  1  0  0  0  0
 42 43  1  0  0  0  0
 43 44  1  0  0  0  0
 43 47  1  0  0  0  0
 43 48  1  0  0  0  0
 44 45  1  0  0  0  0
 44 46  1  0  0  0  0
 50 51  1  0  0  0  0
 55 56  1  0  0  0  0
 56 57  1  0  0  0  0
 56 61  1  0  0  0  0
 57 58  1  0  0  0  0
 58 59  1  0  0  0  0
 58 71  1  0  0  0  0
 59 60  1  0  0  0  0
 60 61  1  0  0  0  0
 63 64  1  0  0  0  0
 64 65  1  0  0  0  0
 67 68  4  0  0  0  0
 67 72  4  0  0  0  0
 68 69  4  0  0  0  0
 69 70  4  0  0  0  0
 70 71  4  0  0  0  0
 71 72  4  0  0  0  0
M  END
$$$$
