mol_ETKDG2_115
  PyMOL3.1          3D                             0

 73 79  0  0  0  0  0  0  0  0999 V2000
   -5.3548   -2.9665   -0.1938 C   0  0  0  0  0  0  0  0  0  0  0  0
   -5.6322   -2.0359   -1.3099 C   0  0  0  0  0  0  0  0  0  0  0  0
   -5.9328   -2.6316   -2.5469 O   0  0  0  0  0  0  0  0  0  0  0  0
   -4.8665   -3.2081   -3.2646 C   0  0  0  0  0  0  0  0  0  0  0  0
   -6.7174   -1.0950   -1.0068 C   0  0  0  0  0  0  0  0  0  0  0  0
   -7.9518   -1.5620   -0.9913 N   0  0  0  0  0  0  0  0  0  0  0  0
   -8.9923   -0.7699   -0.6662 C   0  0  0  0  0  0  0  0  0  0  0  0
   -8.8086    0.5728   -0.3267 C   0  0  0  0  0  0  0  0  0  0  0  0
   -7.5075    1.0835   -0.3296 C   0  0  0  0  0  0  0  0  0  0  0  0
   -6.4590    0.2340   -0.7085 C   0  0  0  0  0  0  0  0  0  0  0  0
   -5.1237    0.7734   -0.7625 C   0  0  0  0  0  0  0  0  0  0  0  0
   -4.3317    0.8553    0.3270 N   0  0  0  0  0  0  0  0  0  0  0  0
   -4.6442    0.4177    1.7296 C   0  0  0  0  0  0  0  0  0  0  0  0
   -4.9463    1.5319    2.6281 C   0  0  0  0  0  0  0  0  0  0  0  0
   -4.4334    1.2025   -1.9294 C   0  0  0  0  0  0  0  0  0  0  0  0
   -4.8247    1.2177   -3.3912 C   0  0  0  0  0  0  0  0  0  0  0  0
   -5.5242    2.5474   -3.9107 C   0  0  0  0  0  0  0  0  0  0  0  0
   -5.9103    2.3067   -5.3617 C   0  0  0  0  0  0  0  0  0  0  0  0
   -6.8043    2.7971   -3.1952 C   0  0  0  0  0  0  0  0  0  0  0  0
   -4.6600    3.8149   -3.8039 C   0  0  0  0  0  0  0  0  0  0  0  0
   -3.6804    4.0416   -4.9190 O   0  0  0  0  0  0  0  0  0  0  0  0
   -3.5623    5.2531   -5.6745 C   0  0  0  0  0  0  0  0  0  0  0  0
   -2.4857    5.3454   -6.7479 C   0  0  0  0  0  0  0  0  0  0  0  0
   -2.0851    4.0401   -7.1359 N   0  0  0  0  0  0  0  0  0  0  0  0
   -1.1283    3.9057   -8.1312 N   0  0  0  0  0  0  0  0  0  0  0  0
   -0.0139    3.1451   -7.9370 C   0  0  0  0  0  0  0  0  0  0  0  0
    0.1717    2.4855   -6.6094 C   0  0  0  0  0  0  0  0  0  0  0  0
    0.6946    1.1394   -6.7264 N   0  0  0  0  0  0  0  0  0  0  0  0
   -0.0713    0.0387   -6.5709 C   0  0  0  0  0  0  0  0  0  0  0  0
    0.6482   -1.2621   -6.5622 C   0  0  0  0  0  0  0  0  0  0  0  0
    0.5248   -2.0878   -7.8829 C   0  0  0  0  0  0  0  0  0  0  0  0
    1.4162   -3.2846   -7.8797 C   0  0  0  0  0  0  0  0  0  0  0  0
    0.7027   -1.2439   -9.1040 C   0  0  0  0  0  0  0  0  0  0  0  0
    0.1663   -2.0089   -5.4023 N   0  0  0  0  0  0  0  0  0  0  0  0
    0.7479   -1.7768   -4.1841 C   0  0  0  0  0  0  0  0  0  0  0  0
    0.3530   -2.4445   -2.8932 C   0  0  0  0  0  0  0  0  0  0  0  0
    1.3923   -2.2429   -1.7890 C   0  0  0  0  0  0  0  0  0  0  0  0
    0.9318   -2.8152   -0.4986 C   0  0  0  0  0  0  0  0  0  0  0  0
   -0.4241   -2.3459   -0.1732 N   0  0  0  0  0  0  0  0  0  0  0  0
   -0.7586   -1.7960    1.0221 C   0  0  0  0  0  0  0  0  0  0  0  0
    0.1909   -1.2476    1.8453 C   0  0  0  0  0  0  0  0  0  0  0  0
    0.9112   -0.8011    2.6180 C   0  0  0  0  0  0  0  0  0  0  0  0
    1.9445   -0.3109    3.4360 C   0  0  0  0  0  0  0  0  0  0  0  0
    1.9000   -0.8496    4.7507 N   0  0  0  0  0  0  0  0  0  0  0  0
    0.7229   -1.4163    5.2550 C   0  0  0  0  0  0  0  0  0  0  0  0
    2.9278   -0.6322    5.6744 C   0  0  0  0  0  0  0  0  0  0  0  0
    3.2538   -0.6790    2.7692 C   0  0  0  0  0  0  0  0  0  0  0  0
    1.8582    1.2031    3.5096 C   0  0  0  0  0  0  0  0  0  0  0  0
   -1.9477   -1.7287    1.3542 O   0  0  0  0  0  0  0  0  0  0  0  0
   -1.4172   -2.4664   -1.1875 C   0  0  0  0  0  0  0  0  0  0  0  0
   -0.9511   -1.8188   -2.4386 C   0  0  0  0  0  0  0  0  0  0  0  0
    1.6630   -0.9357   -4.1477 O   0  0  0  0  0  0  0  0  0  0  0  0
   -1.0086   -2.8867   -5.5614 C   0  0  0  0  0  0  0  0  0  0  0  0
   -1.2590    0.1399   -6.3344 O   0  0  0  0  0  0  0  0  0  0  0  0
    1.1258    3.3582   -5.7120 C   0  0  0  0  0  0  0  0  0  0  0  0
    1.3271    2.8253   -4.2732 C   0  0  0  0  0  0  0  0  0  0  0  0
    0.0835    3.0954   -3.5140 C   0  0  0  0  0  0  0  0  0  0  0  0
    0.2041    2.7325   -2.1261 N   0  0  0  0  0  0  0  0  0  0  0  0
    1.3686    3.2868   -1.4353 C   0  0  0  0  0  0  0  0  0  0  0  0
    2.6334    3.1301   -2.2873 C   0  0  0  0  0  0  0  0  0  0  0  0
    2.4176    3.5717   -3.6714 O   0  0  0  0  0  0  0  0  0  0  0  0
    0.8592    3.0269   -8.8092 O   0  0  0  0  0  0  0  0  0  0  0  0
   -1.4396    4.5598   -9.4025 C   0  0  0  0  0  0  0  0  0  0  0  0
   -1.8894    6.0086   -9.1381 C   0  0  0  0  0  0  0  0  0  0  0  0
   -2.9413    6.1120   -8.0293 C   0  0  0  0  0  0  0  0  0  0  0  0
   -4.2893    6.2405   -5.5055 O   0  0  0  0  0  0  0  0  0  0  0  0
   -3.1802    1.5795   -1.4371 C   0  0  0  0  0  0  0  0  0  0  0  0
   -3.1588    1.3563   -0.0632 C   0  0  0  0  0  0  0  0  0  0  0  0
   -1.9713    1.6428    0.6720 C   0  0  0  0  0  0  0  0  0  0  0  0
   -0.8716    2.0872   -0.0505 C   0  0  0  0  0  0  0  0  0  0  0  0
   -0.9163    2.2887   -1.4324 C   0  0  0  0  0  0  0  0  0  0  0  0
   -2.0862    2.0314   -2.1424 C   0  0  0  0  0  0  0  0  0  0  0  0
    0.2022   -3.8034   -3.0788 F   0  0  0  0  0  0  0  0  0  0  0  0
  1  2  1  0  0  0  0
  2  3  1  0  0  0  0
  2  5  1  0  0  0  0
  3  4  1  0  0  0  0
  5  6  4  0  0  0  0
  5 10  4  0  0  0  0
  6  7  4  0  0  0  0
  7  8  4  0  0  0  0
  8  9  4  0  0  0  0
  9 10  4  0  0  0  0
 10 11  1  0  0  0  0
 11 12  4  0  0  0  0
 11 15  4  0  0  0  0
 12 13  1  0  0  0  0
 12 68  4  0  0  0  0
 13 14  1  0  0  0  0
 15 16  1  0  0  0  0
 15 67  4  0  0  0  0
 16 17  1  0  0  0  0
 17 18  1  0  0  0  0
 17 19  1  0  0  0  0
 17 20  1  0  0  0  0
 20 21  1  0  0  0  0
 21 22  1  0  0  0  0
 22 23  1  0  0  0  0
 22 66  2  0  0  0  0
 23 24  1  0  0  0  0
 23 65  1  0  0  0  0
 24 25  1  0  0  0  0
 25 26  1  0  0  0  0
 25 63  1  0  0  0  0
 26 27  1  0  0  0  0
 26 62  2  0  0  0  0
 27 28  1  0  0  0  0
 27 55  1  0  0  0  0
 28 29  1  0  0  0  0
 29 30  1  0  0  0  0
 29 54  2  0  0  0  0
 30 31  1  0  0  0  0
 30 34  1  0  0  0  0
 31 32  1  0  0  0  0
 31 33  1  0  0  0  0
 34 35  1  0  0  0  0
 34 53  1  0  0  0  0
 35 36  1  0  0  0  0
 35 52  2  0  0  0  0
 36 37  1  0  0  0  0
 36 51  1  0  0  0  0
 36 73  1  0  0  0  0
 37 38  1  0  0  0  0
 38 39  1  0  0  0  0
 39 40  1  0  0  0  0
 39 50  1  0  0  0  0
 40 41  1  0  0  0  0
 40 49  2  0  0  0  0
 41 42  1  0  0  0  0
 42 43  1  0  0  0  0
 43 44  1  0  0  0  0
 43 47  1  0  0  0  0
 43 48  1  0  0  0  0
 44 45  1  0  0  0  0
 44 46  1  0  0  0  0
 50 51  1  0  0  0  0
 55 56  1  0  0  0  0
 56 57  1  0  0  0  0
 56 61  1  0  0  0  0
 57 58  1  0  0  0  0
 58 59  1  0  0  0  0
 58 71  1  0  0  0  0
 59 60  1  0  0  0  0
 60 61  1  0  0  0  0
 63 64  1  0  0  0  0
 64 65  1  0  0  0  0
 67 68  4  0  0  0  0
 67 72  4  0  0  0  0
 68 69  4  0  0  0  0
 69 70  4  0  0  0  0
 70 71  4  0  0  0  0
 71 72  4  0  0  0  0
M  END
$$$$
