mol_ETKDG3_177
  PyMOL3.1          3D                             0

 73 79  0  0  0  0  0  0  0  0999 V2000
   -1.1952   -3.8321   -4.0120 C   0  0  0  0  0  0  0  0  0  0  0  0
   -1.5860   -3.8591   -2.5897 C   0  0  0  0  0  0  0  0  0  0  0  0
   -0.7173   -4.5693   -1.7319 O   0  0  0  0  0  0  0  0  0  0  0  0
    0.5471   -3.9897   -1.4822 C   0  0  0  0  0  0  0  0  0  0  0  0
   -2.9472   -4.3770   -2.3791 C   0  0  0  0  0  0  0  0  0  0  0  0
   -3.1274   -5.6869   -2.3527 N   0  0  0  0  0  0  0  0  0  0  0  0
   -4.3590   -6.2272   -2.2351 C   0  0  0  0  0  0  0  0  0  0  0  0
   -5.5023   -5.4251   -2.1331 C   0  0  0  0  0  0  0  0  0  0  0  0
   -5.3361   -4.0376   -2.1757 C   0  0  0  0  0  0  0  0  0  0  0  0
   -4.0322   -3.5159   -2.2724 C   0  0  0  0  0  0  0  0  0  0  0  0
   -3.8582   -2.0849   -2.2493 C   0  0  0  0  0  0  0  0  0  0  0  0
   -4.0659   -1.2745   -3.3182 N   0  0  0  0  0  0  0  0  0  0  0  0
   -4.5027   -1.6687   -4.6989 C   0  0  0  0  0  0  0  0  0  0  0  0
   -5.9072   -1.3543   -4.9635 C   0  0  0  0  0  0  0  0  0  0  0  0
   -3.3622   -1.3387   -1.1532 C   0  0  0  0  0  0  0  0  0  0  0  0
   -2.8731   -1.7934    0.1933 C   0  0  0  0  0  0  0  0  0  0  0  0
   -3.9774   -1.8843    1.3179 C   0  0  0  0  0  0  0  0  0  0  0  0
   -5.0877   -2.8594    0.9875 C   0  0  0  0  0  0  0  0  0  0  0  0
   -3.3349   -2.4587    2.5477 C   0  0  0  0  0  0  0  0  0  0  0  0
   -4.5892   -0.5050    1.5727 C   0  0  0  0  0  0  0  0  0  0  0  0
   -3.7886    0.3138    2.5417 O   0  0  0  0  0  0  0  0  0  0  0  0
   -4.2147    0.6647    3.8482 C   0  0  0  0  0  0  0  0  0  0  0  0
   -3.3321    1.5606    4.6882 C   0  0  0  0  0  0  0  0  0  0  0  0
   -1.9690    1.5081    4.2535 N   0  0  0  0  0  0  0  0  0  0  0  0
   -1.0522    2.2719    4.9793 N   0  0  0  0  0  0  0  0  0  0  0  0
   -0.2209    3.1723    4.3693 C   0  0  0  0  0  0  0  0  0  0  0  0
   -0.2293    3.2707    2.8765 C   0  0  0  0  0  0  0  0  0  0  0  0
    1.0941    3.5429    2.3584 N   0  0  0  0  0  0  0  0  0  0  0  0
    1.8586    2.6127    1.7782 C   0  0  0  0  0  0  0  0  0  0  0  0
    3.1123    3.0815    1.1222 C   0  0  0  0  0  0  0  0  0  0  0  0
    4.3962    2.9939    1.9614 C   0  0  0  0  0  0  0  0  0  0  0  0
    5.4152    4.0176    1.6285 C   0  0  0  0  0  0  0  0  0  0  0  0
    4.2432    2.6651    3.3946 C   0  0  0  0  0  0  0  0  0  0  0  0
    3.2163    2.3679   -0.1463 N   0  0  0  0  0  0  0  0  0  0  0  0
    2.4799    2.8254   -1.2090 C   0  0  0  0  0  0  0  0  0  0  0  0
    2.3694    2.1381   -2.5410 C   0  0  0  0  0  0  0  0  0  0  0  0
    1.8421    3.0577   -3.6451 C   0  0  0  0  0  0  0  0  0  0  0  0
    1.5851    2.2943   -4.8996 C   0  0  0  0  0  0  0  0  0  0  0  0
    0.7693    1.0880   -4.6318 N   0  0  0  0  0  0  0  0  0  0  0  0
   -0.3453    0.7397   -5.3226 C   0  0  0  0  0  0  0  0  0  0  0  0
   -0.9550    1.5837   -6.2157 C   0  0  0  0  0  0  0  0  0  0  0  0
   -1.5164    2.1662   -7.0442 C   0  0  0  0  0  0  0  0  0  0  0  0
   -2.1387    2.9548   -8.0223 C   0  0  0  0  0  0  0  0  0  0  0  0
   -2.1694    2.2469   -9.2657 N   0  0  0  0  0  0  0  0  0  0  0  0
   -2.7874    0.9777   -9.3062 C   0  0  0  0  0  0  0  0  0  0  0  0
   -1.8963    2.8594  -10.4936 C   0  0  0  0  0  0  0  0  0  0  0  0
   -1.3846    4.2542   -8.1258 C   0  0  0  0  0  0  0  0  0  0  0  0
   -3.5724    3.3013   -7.6152 C   0  0  0  0  0  0  0  0  0  0  0  0
   -0.8610   -0.3803   -5.1290 O   0  0  0  0  0  0  0  0  0  0  0  0
    1.1963    0.2370   -3.5742 C   0  0  0  0  0  0  0  0  0  0  0  0
    1.3884    0.9949   -2.3274 C   0  0  0  0  0  0  0  0  0  0  0  0
    1.8085    3.8617   -1.0332 O   0  0  0  0  0  0  0  0  0  0  0  0
    4.0022    1.1131   -0.2006 C   0  0  0  0  0  0  0  0  0  0  0  0
    1.4518    1.4592    1.6821 O   0  0  0  0  0  0  0  0  0  0  0  0
   -1.2175    4.3981    2.3812 C   0  0  0  0  0  0  0  0  0  0  0  0
   -1.3186    4.4913    0.8280 C   0  0  0  0  0  0  0  0  0  0  0  0
   -2.3000    3.4789    0.3900 C   0  0  0  0  0  0  0  0  0  0  0  0
   -2.5208    3.5166   -1.0334 N   0  0  0  0  0  0  0  0  0  0  0  0
   -2.8507    4.8483   -1.5708 C   0  0  0  0  0  0  0  0  0  0  0  0
   -1.8984    5.9204   -1.0077 C   0  0  0  0  0  0  0  0  0  0  0  0
   -1.7695    5.8123    0.4530 O   0  0  0  0  0  0  0  0  0  0  0  0
    0.5175    3.9301    5.0214 O   0  0  0  0  0  0  0  0  0  0  0  0
   -0.9905    1.9917    6.4150 C   0  0  0  0  0  0  0  0  0  0  0  0
   -2.4064    2.0385    7.0050 C   0  0  0  0  0  0  0  0  0  0  0  0
   -3.3925    1.1926    6.1965 C   0  0  0  0  0  0  0  0  0  0  0  0
   -5.3019    0.2898    4.3639 O   0  0  0  0  0  0  0  0  0  0  0  0
   -3.3378   -0.0169   -1.6286 C   0  0  0  0  0  0  0  0  0  0  0  0
   -3.7708   -0.0197   -2.9515 C   0  0  0  0  0  0  0  0  0  0  0  0
   -3.8033    1.2168   -3.6773 C   0  0  0  0  0  0  0  0  0  0  0  0
   -3.3736    2.3709   -3.0113 C   0  0  0  0  0  0  0  0  0  0  0  0
   -2.9416    2.3485   -1.6784 C   0  0  0  0  0  0  0  0  0  0  0  0
   -2.9130    1.1316   -0.9742 C   0  0  0  0  0  0  0  0  0  0  0  0
    3.5859    1.6631   -2.9767 F   0  0  0  0  0  0  0  0  0  0  0  0
  1  2  1  0  0  0  0
  2  3  1  0  0  0  0
  2  5  1  0  0  0  0
  3  4  1  0  0  0  0
  5  6  4  0  0  0  0
  5 10  4  0  0  0  0
  6  7  4  0  0  0  0
  7  8  4  0  0  0  0
  8  9  4  0  0  0  0
  9 10  4  0  0  0  0
 10 11  1  0  0  0  0
 11 12  4  0  0  0  0
 11 15  4  0  0  0  0
 12 13  1  0  0  0  0
 12 68  4  0  0  0  0
 13 14  1  0  0  0  0
 15 16  1  0  0  0  0
 15 67  4  0  0  0  0
 16 17  1  0  0  0  0
 17 18  1  0  0  0  0
 17 19  1  0  0  0  0
 17 20  1  0  0  0  0
 20 21  1  0  0  0  0
 21 22  1  0  0  0  0
 22 23  1  0  0  0  0
 22 66  2  0  0  0  0
 23 24  1  0  0  0  0
 23 65  1  0  0  0  0
 24 25  1  0  0  0  0
 25 26  1  0  0  0  0
 25 63  1  0  0  0  0
 26 27  1  0  0  0  0
 26 62  2  0  0  0  0
 27 28  1  0  0  0  0
 27 55  1  0  0  0  0
 28 29  1  0  0  0  0
 29 30  1  0  0  0  0
 29 54  2  0  0  0  0
 30 31  1  0  0  0  0
 30 34  1  0  0  0  0
 31 32  1  0  0  0  0
 31 33  1  0  0  0  0
 34 35  1  0  0  0  0
 34 53  1  0  0  0  0
 35 36  1  0  0  0  0
 35 52  2  0  0  0  0
 36 37  1  0  0  0  0
 36 51  1  0  0  0  0
 36 73  1  0  0  0  0
 37 38  1  0  0  0  0
 38 39  1  0  0  0  0
 39 40  1  0  0  0  0
 39 50  1  0  0  0  0
 40 41  1  0  0  0  0
 40 49  2  0  0  0  0
 41 42  1  0  0  0  0
 42 43  1  0  0  0  0
 43 44  1  0  0  0  0
 43 47  1  0  0  0  0
 43 48  1  0  0  0  0
 44 45  1  0  0  0  0
 44 46  1  0  0  0  0
 50 51  1  0  0  0  0
 55 56  1  0  0  0  0
 56 57  1  0  0  0  0
 56 61  1  0  0  0  0
 57 58  1  0  0  0  0
 58 59  1  0  0  0  0
 58 71  1  0  0  0  0
 59 60  1  0  0  0  0
 60 61  1  0  0  0  0
 63 64  1  0  0  0  0
 64 65  1  0  0  0  0
 67 68  4  0  0  0  0
 67 72  4  0  0  0  0
 68 69  4  0  0  0  0
 69 70  4  0  0  0  0
 70 71  4  0  0  0  0
 71 72  4  0  0  0  0
M  END
$$$$
