mol_bioactive_36
  PyMOL3.1          3D                             0

 73 79  0  0  0  0  0  0  0  0999 V2000
   -3.0043   -6.5985   -1.9921 C   0  0  0  0  0  0  0  0  0  0  0  0
   -3.7800   -6.6384   -0.7527 C   0  0  0  0  0  0  0  0  0  0  0  0
   -4.3775   -5.4416   -0.3357 O   0  0  0  0  0  0  0  0  0  0  0  0
   -5.0068   -4.5592   -1.1845 C   0  0  0  0  0  0  0  0  0  0  0  0
   -3.1058   -7.1278    0.4384 C   0  0  0  0  0  0  0  0  0  0  0  0
   -3.8965   -8.1111    0.8127 N   0  0  0  0  0  0  0  0  0  0  0  0
   -3.6154   -8.8909    1.8211 C   0  0  0  0  0  0  0  0  0  0  0  0
   -2.4527   -8.7486    2.5320 C   0  0  0  0  0  0  0  0  0  0  0  0
   -1.5678   -7.7329    2.1774 C   0  0  0  0  0  0  0  0  0  0  0  0
   -1.9021   -6.9013    1.1221 C   0  0  0  0  0  0  0  0  0  0  0  0
   -0.9797   -5.8303    0.8166 C   0  0  0  0  0  0  0  0  0  0  0  0
    0.1830   -6.0165    0.1412 N   0  0  0  0  0  0  0  0  0  0  0  0
    0.6981   -7.2808   -0.4696 C   0  0  0  0  0  0  0  0  0  0  0  0
    1.7774   -7.8984    0.2846 C   0  0  0  0  0  0  0  0  0  0  0  0
   -1.1468   -4.4640    1.1483 C   0  0  0  0  0  0  0  0  0  0  0  0
   -2.2755   -3.7357    1.8090 C   0  0  0  0  0  0  0  0  0  0  0  0
   -2.2860   -3.7201    3.3881 C   0  0  0  0  0  0  0  0  0  0  0  0
   -3.4570   -2.8690    3.8212 C   0  0  0  0  0  0  0  0  0  0  0  0
   -2.5550   -5.0609    3.9522 C   0  0  0  0  0  0  0  0  0  0  0  0
   -1.0062   -3.1636    3.9799 C   0  0  0  0  0  0  0  0  0  0  0  0
   -0.9407   -1.6928    4.1756 O   0  0  0  0  0  0  0  0  0  0  0  0
   -0.3845   -1.0396    5.3130 C   0  0  0  0  0  0  0  0  0  0  0  0
   -0.3349    0.4788    5.3092 C   0  0  0  0  0  0  0  0  0  0  0  0
   -1.2290    1.0095    4.3373 N   0  0  0  0  0  0  0  0  0  0  0  0
   -1.3772    2.3842    4.2424 N   0  0  0  0  0  0  0  0  0  0  0  0
   -1.2209    3.0353    3.0468 C   0  0  0  0  0  0  0  0  0  0  0  0
   -0.7901    2.2614    1.8388 C   0  0  0  0  0  0  0  0  0  0  0  0
   -1.5123    2.6744    0.6400 N   0  0  0  0  0  0  0  0  0  0  0  0
   -2.5969    2.0786    0.1370 C   0  0  0  0  0  0  0  0  0  0  0  0
   -3.0759    2.5736   -1.1893 C   0  0  0  0  0  0  0  0  0  0  0  0
   -4.3980    3.3903   -1.1383 C   0  0  0  0  0  0  0  0  0  0  0  0
   -4.6692    4.1348   -2.4036 C   0  0  0  0  0  0  0  0  0  0  0  0
   -4.5171    4.2414    0.0795 C   0  0  0  0  0  0  0  0  0  0  0  0
   -3.1667    1.4016   -2.0608 N   0  0  0  0  0  0  0  0  0  0  0  0
   -2.0221    0.9689   -2.6799 C   0  0  0  0  0  0  0  0  0  0  0  0
   -1.9215   -0.2973   -3.4965 C   0  0  0  0  0  0  0  0  0  0  0  0
   -2.0441   -1.4460   -2.5375 C   0  0  0  0  0  0  0  0  0  0  0  0
   -1.9541   -2.7413   -3.2346 C   0  0  0  0  0  0  0  0  0  0  0  0
   -0.7013   -2.8141   -3.9784 N   0  0  0  0  0  0  0  0  0  0  0  0
    0.1158   -3.8951   -3.8020 C   0  0  0  0  0  0  0  0  0  0  0  0
    1.4451   -3.8998   -4.1944 C   0  0  0  0  0  0  0  0  0  0  0  0
    2.5465   -4.0611   -4.5181 C   0  0  0  0  0  0  0  0  0  0  0  0
    3.8721   -4.1079   -4.9900 C   0  0  0  0  0  0  0  0  0  0  0  0
    3.8801   -4.6968   -6.2867 N   0  0  0  0  0  0  0  0  0  0  0  0
    3.7158   -6.0874   -6.4073 C   0  0  0  0  0  0  0  0  0  0  0  0
    3.6143   -3.9138   -7.4234 C   0  0  0  0  0  0  0  0  0  0  0  0
    4.4427   -2.7113   -5.0164 C   0  0  0  0  0  0  0  0  0  0  0  0
    4.7475   -4.9135   -4.0591 C   0  0  0  0  0  0  0  0  0  0  0  0
   -0.3201   -4.8958   -3.2429 O   0  0  0  0  0  0  0  0  0  0  0  0
   -0.4035   -1.7189   -4.8530 C   0  0  0  0  0  0  0  0  0  0  0  0
   -0.5718   -0.4076   -4.2181 C   0  0  0  0  0  0  0  0  0  0  0  0
   -1.0026    1.6561   -2.5337 O   0  0  0  0  0  0  0  0  0  0  0  0
   -4.4347    0.6672   -2.1372 C   0  0  0  0  0  0  0  0  0  0  0  0
   -3.0737    1.1071    0.6927 O   0  0  0  0  0  0  0  0  0  0  0  0
    0.7502    2.4904    1.6347 C   0  0  0  0  0  0  0  0  0  0  0  0
    1.7268    1.4717    0.9937 C   0  0  0  0  0  0  0  0  0  0  0  0
    1.1327    0.1488    0.7929 C   0  0  0  0  0  0  0  0  0  0  0  0
    1.9033   -0.7733    0.0214 N   0  0  0  0  0  0  0  0  0  0  0  0
    3.0285   -0.3083   -0.7303 C   0  0  0  0  0  0  0  0  0  0  0  0
    3.1983    1.1521   -0.8656 C   0  0  0  0  0  0  0  0  0  0  0  0
    2.2242    2.0183   -0.2486 O   0  0  0  0  0  0  0  0  0  0  0  0
   -1.3557    4.2628    2.9518 O   0  0  0  0  0  0  0  0  0  0  0  0
   -1.7489    3.0660    5.4682 C   0  0  0  0  0  0  0  0  0  0  0  0
   -0.8204    2.6111    6.6087 C   0  0  0  0  0  0  0  0  0  0  0  0
   -0.6851    1.0980    6.6857 C   0  0  0  0  0  0  0  0  0  0  0  0
    0.0699   -1.6315    6.3069 O   0  0  0  0  0  0  0  0  0  0  0  0
    0.0067   -3.8537    0.6365 C   0  0  0  0  0  0  0  0  0  0  0  0
    0.7972   -4.8327    0.0476 C   0  0  0  0  0  0  0  0  0  0  0  0
    2.0360   -4.4520   -0.5494 C   0  0  0  0  0  0  0  0  0  0  0  0
    2.3691   -3.0949   -0.5393 C   0  0  0  0  0  0  0  0  0  0  0  0
    1.5476   -2.1254    0.0336 C   0  0  0  0  0  0  0  0  0  0  0  0
    0.3477   -2.5108    0.6384 C   0  0  0  0  0  0  0  0  0  0  0  0
   -2.8993   -0.3234   -4.4749 F   0  0  0  0  0  0  0  0  0  0  0  0
  1  2  1  0  0  0  0
  2  3  1  0  0  0  0
  2  5  1  0  0  0  0
  3  4  1  0  0  0  0
  5  6  4  0  0  0  0
  5 10  4  0  0  0  0
  6  7  4  0  0  0  0
  7  8  4  0  0  0  0
  8  9  4  0  0  0  0
  9 10  4  0  0  0  0
 10 11  1  0  0  0  0
 11 12  4  0  0  0  0
 11 15  4  0  0  0  0
 12 13  1  0  0  0  0
 12 68  4  0  0  0  0
 13 14  1  0  0  0  0
 15 16  1  0  0  0  0
 15 67  4  0  0  0  0
 16 17  1  0  0  0  0
 17 18  1  0  0  0  0
 17 19  1  0  0  0  0
 17 20  1  0  0  0  0
 20 21  1  0  0  0  0
 21 22  1  0  0  0  0
 22 23  1  0  0  0  0
 22 66  2  0  0  0  0
 23 24  1  0  0  0  0
 23 65  1  0  0  0  0
 24 25  1  0  0  0  0
 25 26  1  0  0  0  0
 25 63  1  0  0  0  0
 26 27  1  0  0  0  0
 26 62  2  0  0  0  0
 27 28  1  0  0  0  0
 27 55  1  0  0  0  0
 28 29  1  0  0  0  0
 29 30  1  0  0  0  0
 29 54  2  0  0  0  0
 30 31  1  0  0  0  0
 30 34  1  0  0  0  0
 31 32  1  0  0  0  0
 31 33  1  0  0  0  0
 34 35  1  0  0  0  0
 34 53  1  0  0  0  0
 35 36  1  0  0  0  0
 35 52  2  0  0  0  0
 36 37  1  0  0  0  0
 36 51  1  0  0  0  0
 36 73  1  0  0  0  0
 37 38  1  0  0  0  0
 38 39  1  0  0  0  0
 39 40  1  0  0  0  0
 39 50  1  0  0  0  0
 40 41  1  0  0  0  0
 40 49  2  0  0  0  0
 41 42  1  0  0  0  0
 42 43  1  0  0  0  0
 43 44  1  0  0  0  0
 43 47  1  0  0  0  0
 43 48  1  0  0  0  0
 44 45  1  0  0  0  0
 44 46  1  0  0  0  0
 50 51  1  0  0  0  0
 55 56  1  0  0  0  0
 56 57  1  0  0  0  0
 56 61  1  0  0  0  0
 57 58  1  0  0  0  0
 58 59  1  0  0  0  0
 58 71  1  0  0  0  0
 59 60  1  0  0  0  0
 60 61  1  0  0  0  0
 63 64  1  0  0  0  0
 64 65  1  0  0  0  0
 67 68  4  0  0  0  0
 67 72  4  0  0  0  0
 68 69  4  0  0  0  0
 69 70  4  0  0  0  0
 70 71  4  0  0  0  0
 71 72  4  0  0  0  0
M  END
$$$$
