mol_ETKDG2_143
  PyMOL3.1          3D                             0

 73 79  0  0  0  0  0  0  0  0999 V2000
   -6.0592   -0.7630   -2.6019 C   0  0  0  0  0  0  0  0  0  0  0  0
   -5.6112   -1.6068   -1.4712 C   0  0  0  0  0  0  0  0  0  0  0  0
   -6.6011   -1.8780   -0.4947 O   0  0  0  0  0  0  0  0  0  0  0  0
   -7.0420   -0.7972    0.3099 C   0  0  0  0  0  0  0  0  0  0  0  0
   -5.0313   -2.8997   -1.9131 C   0  0  0  0  0  0  0  0  0  0  0  0
   -5.8599   -3.8601   -2.3132 N   0  0  0  0  0  0  0  0  0  0  0  0
   -5.3956   -5.0421   -2.7903 C   0  0  0  0  0  0  0  0  0  0  0  0
   -4.0223   -5.3058   -2.8919 C   0  0  0  0  0  0  0  0  0  0  0  0
   -3.1297   -4.3068   -2.4792 C   0  0  0  0  0  0  0  0  0  0  0  0
   -3.6521   -3.1050   -1.9681 C   0  0  0  0  0  0  0  0  0  0  0  0
   -2.7092   -2.1111   -1.4987 C   0  0  0  0  0  0  0  0  0  0  0  0
   -2.1007   -1.2098   -2.3127 N   0  0  0  0  0  0  0  0  0  0  0  0
   -2.3132   -1.0176   -3.7956 C   0  0  0  0  0  0  0  0  0  0  0  0
   -1.1911   -1.4427   -4.6298 C   0  0  0  0  0  0  0  0  0  0  0  0
   -2.3416   -1.8925   -0.1398 C   0  0  0  0  0  0  0  0  0  0  0  0
   -2.8448   -2.5064    1.1326 C   0  0  0  0  0  0  0  0  0  0  0  0
   -2.2031   -3.8770    1.6038 C   0  0  0  0  0  0  0  0  0  0  0  0
   -2.8556   -5.0748    0.9143 C   0  0  0  0  0  0  0  0  0  0  0  0
   -2.5417   -4.0415    3.0503 C   0  0  0  0  0  0  0  0  0  0  0  0
   -0.6916   -3.9667    1.4136 C   0  0  0  0  0  0  0  0  0  0  0  0
    0.1637   -3.6825    2.6305 O   0  0  0  0  0  0  0  0  0  0  0  0
    1.4477   -4.2503    2.8750 C   0  0  0  0  0  0  0  0  0  0  0  0
    2.1928   -3.8477    4.1446 C   0  0  0  0  0  0  0  0  0  0  0  0
    1.3191   -3.1090    5.0205 N   0  0  0  0  0  0  0  0  0  0  0  0
    1.7979   -2.6968    6.2619 N   0  0  0  0  0  0  0  0  0  0  0  0
    1.6894   -1.3761    6.6645 C   0  0  0  0  0  0  0  0  0  0  0  0
    1.0431   -0.3858    5.7310 C   0  0  0  0  0  0  0  0  0  0  0  0
    0.1502    0.5298    6.4187 N   0  0  0  0  0  0  0  0  0  0  0  0
   -1.1936    0.3756    6.4695 C   0  0  0  0  0  0  0  0  0  0  0  0
   -1.9675    1.5349    7.0218 C   0  0  0  0  0  0  0  0  0  0  0  0
   -2.5696    1.2622    8.4539 C   0  0  0  0  0  0  0  0  0  0  0  0
   -3.1855    2.4865    9.0660 C   0  0  0  0  0  0  0  0  0  0  0  0
   -1.5750    0.6096    9.3769 C   0  0  0  0  0  0  0  0  0  0  0  0
   -2.9794    1.8632    5.9957 N   0  0  0  0  0  0  0  0  0  0  0  0
   -2.5857    2.6423    4.9136 C   0  0  0  0  0  0  0  0  0  0  0  0
   -3.4512    2.9658    3.7044 C   0  0  0  0  0  0  0  0  0  0  0  0
   -3.5867    1.6879    2.8955 C   0  0  0  0  0  0  0  0  0  0  0  0
   -4.4024    1.8979    1.6574 C   0  0  0  0  0  0  0  0  0  0  0  0
   -3.8149    2.9708    0.8397 N   0  0  0  0  0  0  0  0  0  0  0  0
   -3.5740    2.7595   -0.5103 C   0  0  0  0  0  0  0  0  0  0  0  0
   -2.7783    3.6210   -1.2664 C   0  0  0  0  0  0  0  0  0  0  0  0
   -2.1351    4.2626   -2.0271 C   0  0  0  0  0  0  0  0  0  0  0  0
   -1.3228    5.1243   -2.8020 C   0  0  0  0  0  0  0  0  0  0  0  0
   -1.1020    4.6673   -4.1446 N   0  0  0  0  0  0  0  0  0  0  0  0
   -1.7709    3.5487   -4.6554 C   0  0  0  0  0  0  0  0  0  0  0  0
   -0.3224    5.3886   -5.0679 C   0  0  0  0  0  0  0  0  0  0  0  0
    0.0217    5.2743   -2.1029 C   0  0  0  0  0  0  0  0  0  0  0  0
   -1.9805    6.4995   -2.8432 C   0  0  0  0  0  0  0  0  0  0  0  0
   -4.0422    1.7701   -1.0808 O   0  0  0  0  0  0  0  0  0  0  0  0
   -3.5243    4.2121    1.5214 C   0  0  0  0  0  0  0  0  0  0  0  0
   -2.7875    4.0326    2.7934 C   0  0  0  0  0  0  0  0  0  0  0  0
   -1.4214    3.0792    4.9225 O   0  0  0  0  0  0  0  0  0  0  0  0
   -4.3142    1.2488    6.0798 C   0  0  0  0  0  0  0  0  0  0  0  0
   -1.7196   -0.5970    5.9591 O   0  0  0  0  0  0  0  0  0  0  0  0
    2.1446    0.4596    4.9649 C   0  0  0  0  0  0  0  0  0  0  0  0
    1.5775    1.4429    3.8945 C   0  0  0  0  0  0  0  0  0  0  0  0
    1.2914    0.6589    2.6573 C   0  0  0  0  0  0  0  0  0  0  0  0
    0.8330    1.4977    1.5651 N   0  0  0  0  0  0  0  0  0  0  0  0
    1.7363    2.6439    1.2621 C   0  0  0  0  0  0  0  0  0  0  0  0
    2.1020    3.3918    2.5602 C   0  0  0  0  0  0  0  0  0  0  0  0
    2.5852    2.4563    3.6033 O   0  0  0  0  0  0  0  0  0  0  0  0
    2.1380   -0.9869    7.7548 O   0  0  0  0  0  0  0  0  0  0  0  0
    2.3543   -3.7563    7.1063 C   0  0  0  0  0  0  0  0  0  0  0  0
    3.3373   -4.6375    6.2869 C   0  0  0  0  0  0  0  0  0  0  0  0
    2.7621   -5.0674    4.9306 C   0  0  0  0  0  0  0  0  0  0  0  0
    2.0008   -5.0671    2.1109 O   0  0  0  0  0  0  0  0  0  0  0  0
   -1.4143   -0.8339   -0.2081 C   0  0  0  0  0  0  0  0  0  0  0  0
   -1.2996   -0.4425   -1.5485 C   0  0  0  0  0  0  0  0  0  0  0  0
   -0.4193    0.6451   -1.8820 C   0  0  0  0  0  0  0  0  0  0  0  0
    0.2684    1.2706   -0.8218 C   0  0  0  0  0  0  0  0  0  0  0  0
    0.1298    0.8615    0.5190 C   0  0  0  0  0  0  0  0  0  0  0  0
   -0.7436   -0.1971    0.8348 C   0  0  0  0  0  0  0  0  0  0  0  0
   -4.6779    3.4753    4.1003 F   0  0  0  0  0  0  0  0  0  0  0  0
  1  2  1  0  0  0  0
  2  3  1  0  0  0  0
  2  5  1  0  0  0  0
  3  4  1  0  0  0  0
  5  6  4  0  0  0  0
  5 10  4  0  0  0  0
  6  7  4  0  0  0  0
  7  8  4  0  0  0  0
  8  9  4  0  0  0  0
  9 10  4  0  0  0  0
 10 11  1  0  0  0  0
 11 12  4  0  0  0  0
 11 15  4  0  0  0  0
 12 13  1  0  0  0  0
 12 68  4  0  0  0  0
 13 14  1  0  0  0  0
 15 16  1  0  0  0  0
 15 67  4  0  0  0  0
 16 17  1  0  0  0  0
 17 18  1  0  0  0  0
 17 19  1  0  0  0  0
 17 20  1  0  0  0  0
 20 21  1  0  0  0  0
 21 22  1  0  0  0  0
 22 23  1  0  0  0  0
 22 66  2  0  0  0  0
 23 24  1  0  0  0  0
 23 65  1  0  0  0  0
 24 25  1  0  0  0  0
 25 26  1  0  0  0  0
 25 63  1  0  0  0  0
 26 27  1  0  0  0  0
 26 62  2  0  0  0  0
 27 28  1  0  0  0  0
 27 55  1  0  0  0  0
 28 29  1  0  0  0  0
 29 30  1  0  0  0  0
 29 54  2  0  0  0  0
 30 31  1  0  0  0  0
 30 34  1  0  0  0  0
 31 32  1  0  0  0  0
 31 33  1  0  0  0  0
 34 35  1  0  0  0  0
 34 53  1  0  0  0  0
 35 36  1  0  0  0  0
 35 52  2  0  0  0  0
 36 37  1  0  0  0  0
 36 51  1  0  0  0  0
 36 73  1  0  0  0  0
 37 38  1  0  0  0  0
 38 39  1  0  0  0  0
 39 40  1  0  0  0  0
 39 50  1  0  0  0  0
 40 41  1  0  0  0  0
 40 49  2  0  0  0  0
 41 42  1  0  0  0  0
 42 43  1  0  0  0  0
 43 44  1  0  0  0  0
 43 47  1  0  0  0  0
 43 48  1  0  0  0  0
 44 45  1  0  0  0  0
 44 46  1  0  0  0  0
 50 51  1  0  0  0  0
 55 56  1  0  0  0  0
 56 57  1  0  0  0  0
 56 61  1  0  0  0  0
 57 58  1  0  0  0  0
 58 59  1  0  0  0  0
 58 71  1  0  0  0  0
 59 60  1  0  0  0  0
 60 61  1  0  0  0  0
 63 64  1  0  0  0  0
 64 65  1  0  0  0  0
 67 68  4  0  0  0  0
 67 72  4  0  0  0  0
 68 69  4  0  0  0  0
 69 70  4  0  0  0  0
 70 71  4  0  0  0  0
 71 72  4  0  0  0  0
M  END
$$$$
