mol_ETKDG2_145
  PyMOL3.1          3D                             0

 73 79  0  0  0  0  0  0  0  0999 V2000
    2.5749    3.0069    4.4396 C   0  0  0  0  0  0  0  0  0  0  0  0
    2.2110    3.6819    3.1726 C   0  0  0  0  0  0  0  0  0  0  0  0
    3.2979    4.2379    2.4654 O   0  0  0  0  0  0  0  0  0  0  0  0
    4.1424    3.3631    1.7764 C   0  0  0  0  0  0  0  0  0  0  0  0
    1.2462    4.7740    3.3711 C   0  0  0  0  0  0  0  0  0  0  0  0
    1.7099    5.9298    3.8238 N   0  0  0  0  0  0  0  0  0  0  0  0
    0.8833    6.9697    4.0724 C   0  0  0  0  0  0  0  0  0  0  0  0
   -0.4974    6.8706    3.8743 C   0  0  0  0  0  0  0  0  0  0  0  0
   -1.0081    5.6532    3.4140 C   0  0  0  0  0  0  0  0  0  0  0  0
   -0.1120    4.6000    3.1411 C   0  0  0  0  0  0  0  0  0  0  0  0
   -0.6511    3.3601    2.6215 C   0  0  0  0  0  0  0  0  0  0  0  0
   -1.1854    2.3844    3.4005 N   0  0  0  0  0  0  0  0  0  0  0  0
   -1.2671    2.3625    4.8987 C   0  0  0  0  0  0  0  0  0  0  0  0
   -2.6146    2.6570    5.4001 C   0  0  0  0  0  0  0  0  0  0  0  0
   -0.6639    2.9586    1.2598 C   0  0  0  0  0  0  0  0  0  0  0  0
   -0.0729    3.6237    0.0462 C   0  0  0  0  0  0  0  0  0  0  0  0
   -1.0654    4.5537   -0.7659 C   0  0  0  0  0  0  0  0  0  0  0  0
   -0.2283    5.5026   -1.6232 C   0  0  0  0  0  0  0  0  0  0  0  0
   -1.8795    5.4210    0.1039 C   0  0  0  0  0  0  0  0  0  0  0  0
   -2.0088    3.7100   -1.6033 C   0  0  0  0  0  0  0  0  0  0  0  0
   -1.3661    2.9831   -2.7607 O   0  0  0  0  0  0  0  0  0  0  0  0
   -1.6911    3.2052   -4.1341 C   0  0  0  0  0  0  0  0  0  0  0  0
   -1.0791    2.3391   -5.2116 C   0  0  0  0  0  0  0  0  0  0  0  0
   -0.0002    1.5383   -4.7213 N   0  0  0  0  0  0  0  0  0  0  0  0
    0.6236    0.7000   -5.6495 N   0  0  0  0  0  0  0  0  0  0  0  0
    0.7749   -0.6443   -5.4177 C   0  0  0  0  0  0  0  0  0  0  0  0
    0.4058   -1.2001   -4.0762 C   0  0  0  0  0  0  0  0  0  0  0  0
    1.3798   -2.1667   -3.6109 N   0  0  0  0  0  0  0  0  0  0  0  0
    2.3947   -1.8277   -2.8028 C   0  0  0  0  0  0  0  0  0  0  0  0
    3.2437   -2.9340   -2.2761 C   0  0  0  0  0  0  0  0  0  0  0  0
    4.5742   -3.2158   -3.0082 C   0  0  0  0  0  0  0  0  0  0  0  0
    4.6749   -2.7699   -4.3939 C   0  0  0  0  0  0  0  0  0  0  0  0
    5.0965   -4.5909   -2.7332 C   0  0  0  0  0  0  0  0  0  0  0  0
    3.4818   -2.6456   -0.8738 N   0  0  0  0  0  0  0  0  0  0  0  0
    2.5426   -3.0484    0.0314 C   0  0  0  0  0  0  0  0  0  0  0  0
    2.5839   -2.7773    1.5021 C   0  0  0  0  0  0  0  0  0  0  0  0
    1.3186   -1.9933    1.8705 C   0  0  0  0  0  0  0  0  0  0  0  0
    1.2747   -1.7101    3.3067 C   0  0  0  0  0  0  0  0  0  0  0  0
    1.5789   -2.9165    4.0926 N   0  0  0  0  0  0  0  0  0  0  0  0
    0.8484   -3.3365    5.1370 C   0  0  0  0  0  0  0  0  0  0  0  0
   -0.5312   -3.1625    5.2837 C   0  0  0  0  0  0  0  0  0  0  0  0
   -1.6348   -3.2516    5.5839 C   0  0  0  0  0  0  0  0  0  0  0  0
   -3.0131   -3.3826    5.8173 C   0  0  0  0  0  0  0  0  0  0  0  0
   -3.2562   -4.6729    6.4154 N   0  0  0  0  0  0  0  0  0  0  0  0
   -2.7407   -4.9264    7.7096 C   0  0  0  0  0  0  0  0  0  0  0  0
   -3.5615   -5.7863    5.6179 C   0  0  0  0  0  0  0  0  0  0  0  0
   -3.7603   -3.2381    4.5245 C   0  0  0  0  0  0  0  0  0  0  0  0
   -3.5072   -2.2833    6.7368 C   0  0  0  0  0  0  0  0  0  0  0  0
    1.4276   -3.9912    6.0032 O   0  0  0  0  0  0  0  0  0  0  0  0
    2.7437   -3.6969    3.7366 C   0  0  0  0  0  0  0  0  0  0  0  0
    2.6874   -4.0598    2.2936 C   0  0  0  0  0  0  0  0  0  0  0  0
    1.5538   -3.6758   -0.4029 O   0  0  0  0  0  0  0  0  0  0  0  0
    4.6544   -1.8353   -0.5221 C   0  0  0  0  0  0  0  0  0  0  0  0
    2.5108   -0.6681   -2.4380 O   0  0  0  0  0  0  0  0  0  0  0  0
   -1.0385   -1.8381   -4.0576 C   0  0  0  0  0  0  0  0  0  0  0  0
   -1.5261   -2.2560   -2.6296 C   0  0  0  0  0  0  0  0  0  0  0  0
   -1.8408   -1.0088   -1.8740 C   0  0  0  0  0  0  0  0  0  0  0  0
   -2.4087   -1.2762   -0.5653 N   0  0  0  0  0  0  0  0  0  0  0  0
   -3.5515   -2.1834   -0.5571 C   0  0  0  0  0  0  0  0  0  0  0  0
   -3.2883   -3.4087   -1.4544 C   0  0  0  0  0  0  0  0  0  0  0  0
   -2.7480   -3.0356   -2.7725 O   0  0  0  0  0  0  0  0  0  0  0  0
    1.2031   -1.4112   -6.2941 O   0  0  0  0  0  0  0  0  0  0  0  0
    1.1618    1.3617   -6.8390 C   0  0  0  0  0  0  0  0  0  0  0  0
    0.0947    2.2714   -7.4614 C   0  0  0  0  0  0  0  0  0  0  0  0
   -0.5875    3.1677   -6.4240 C   0  0  0  0  0  0  0  0  0  0  0  0
   -2.4880    4.0898   -4.5320 O   0  0  0  0  0  0  0  0  0  0  0  0
   -1.2986    1.7013    1.2795 C   0  0  0  0  0  0  0  0  0  0  0  0
   -1.5945    1.3850    2.6007 C   0  0  0  0  0  0  0  0  0  0  0  0
   -2.2125    0.1241    2.8957 C   0  0  0  0  0  0  0  0  0  0  0  0
   -2.4736   -0.7342    1.8162 C   0  0  0  0  0  0  0  0  0  0  0  0
   -2.1591   -0.3903    0.4937 C   0  0  0  0  0  0  0  0  0  0  0  0
   -1.5671    0.8449    0.2180 C   0  0  0  0  0  0  0  0  0  0  0  0
    3.6542   -2.0351    1.8875 F   0  0  0  0  0  0  0  0  0  0  0  0
  1  2  1  0  0  0  0
  2  3  1  0  0  0  0
  2  5  1  0  0  0  0
  3  4  1  0  0  0  0
  5  6  4  0  0  0  0
  5 10  4  0  0  0  0
  6  7  4  0  0  0  0
  7  8  4  0  0  0  0
  8  9  4  0  0  0  0
  9 10  4  0  0  0  0
 10 11  1  0  0  0  0
 11 12  4  0  0  0  0
 11 15  4  0  0  0  0
 12 13  1  0  0  0  0
 12 68  4  0  0  0  0
 13 14  1  0  0  0  0
 15 16  1  0  0  0  0
 15 67  4  0  0  0  0
 16 17  1  0  0  0  0
 17 18  1  0  0  0  0
 17 19  1  0  0  0  0
 17 20  1  0  0  0  0
 20 21  1  0  0  0  0
 21 22  1  0  0  0  0
 22 23  1  0  0  0  0
 22 66  2  0  0  0  0
 23 24  1  0  0  0  0
 23 65  1  0  0  0  0
 24 25  1  0  0  0  0
 25 26  1  0  0  0  0
 25 63  1  0  0  0  0
 26 27  1  0  0  0  0
 26 62  2  0  0  0  0
 27 28  1  0  0  0  0
 27 55  1  0  0  0  0
 28 29  1  0  0  0  0
 29 30  1  0  0  0  0
 29 54  2  0  0  0  0
 30 31  1  0  0  0  0
 30 34  1  0  0  0  0
 31 32  1  0  0  0  0
 31 33  1  0  0  0  0
 34 35  1  0  0  0  0
 34 53  1  0  0  0  0
 35 36  1  0  0  0  0
 35 52  2  0  0  0  0
 36 37  1  0  0  0  0
 36 51  1  0  0  0  0
 36 73  1  0  0  0  0
 37 38  1  0  0  0  0
 38 39  1  0  0  0  0
 39 40  1  0  0  0  0
 39 50  1  0  0  0  0
 40 41  1  0  0  0  0
 40 49  2  0  0  0  0
 41 42  1  0  0  0  0
 42 43  1  0  0  0  0
 43 44  1  0  0  0  0
 43 47  1  0  0  0  0
 43 48  1  0  0  0  0
 44 45  1  0  0  0  0
 44 46  1  0  0  0  0
 50 51  1  0  0  0  0
 55 56  1  0  0  0  0
 56 57  1  0  0  0  0
 56 61  1  0  0  0  0
 57 58  1  0  0  0  0
 58 59  1  0  0  0  0
 58 71  1  0  0  0  0
 59 60  1  0  0  0  0
 60 61  1  0  0  0  0
 63 64  1  0  0  0  0
 64 65  1  0  0  0  0
 67 68  4  0  0  0  0
 67 72  4  0  0  0  0
 68 69  4  0  0  0  0
 69 70  4  0  0  0  0
 70 71  4  0  0  0  0
 71 72  4  0  0  0  0
M  END
$$$$
