mol_ETKDG1_95
  PyMOL3.1          3D                             0

 73 79  0  0  0  0  0  0  0  0999 V2000
    6.3609    2.4320   -4.2311 C   0  0  0  0  0  0  0  0  0  0  0  0
    5.1824    3.2705   -3.8947 C   0  0  0  0  0  0  0  0  0  0  0  0
    5.5003    4.4530   -3.1445 O   0  0  0  0  0  0  0  0  0  0  0  0
    5.4623    4.3314   -1.7442 C   0  0  0  0  0  0  0  0  0  0  0  0
    4.4288    3.7125   -5.0905 C   0  0  0  0  0  0  0  0  0  0  0  0
    4.8653    4.7763   -5.7486 N   0  0  0  0  0  0  0  0  0  0  0  0
    4.2483    5.2234   -6.8660 C   0  0  0  0  0  0  0  0  0  0  0  0
    3.1286    4.5744   -7.3913 C   0  0  0  0  0  0  0  0  0  0  0  0
    2.6529    3.4484   -6.7193 C   0  0  0  0  0  0  0  0  0  0  0  0
    3.3121    3.0279   -5.5485 C   0  0  0  0  0  0  0  0  0  0  0  0
    2.7656    1.8895   -4.8561 C   0  0  0  0  0  0  0  0  0  0  0  0
    3.0005    0.6099   -5.2283 N   0  0  0  0  0  0  0  0  0  0  0  0
    3.9305    0.1229   -6.3048 C   0  0  0  0  0  0  0  0  0  0  0  0
    3.2670   -0.4474   -7.4671 C   0  0  0  0  0  0  0  0  0  0  0  0
    1.9607    1.9260   -3.6839 C   0  0  0  0  0  0  0  0  0  0  0  0
    1.6172    3.0382   -2.7423 C   0  0  0  0  0  0  0  0  0  0  0  0
    0.3842    3.9637   -3.0287 C   0  0  0  0  0  0  0  0  0  0  0  0
    0.2479    4.8830   -1.8345 C   0  0  0  0  0  0  0  0  0  0  0  0
    0.6325    4.8683   -4.1939 C   0  0  0  0  0  0  0  0  0  0  0  0
   -0.8916    3.1859   -3.2398 C   0  0  0  0  0  0  0  0  0  0  0  0
   -1.8032    2.9431   -2.0578 O   0  0  0  0  0  0  0  0  0  0  0  0
   -3.2335    2.9909   -2.1389 C   0  0  0  0  0  0  0  0  0  0  0  0
   -4.0572    2.5927   -0.9260 C   0  0  0  0  0  0  0  0  0  0  0  0
   -3.2592    2.5661    0.2677 N   0  0  0  0  0  0  0  0  0  0  0  0
   -3.8965    2.2464    1.4717 N   0  0  0  0  0  0  0  0  0  0  0  0
   -3.4278    1.2531    2.2861 C   0  0  0  0  0  0  0  0  0  0  0  0
   -2.2078    0.4795    1.8727 C   0  0  0  0  0  0  0  0  0  0  0  0
   -1.4167    0.0902    3.0197 N   0  0  0  0  0  0  0  0  0  0  0  0
   -0.2984    0.7080    3.4003 C   0  0  0  0  0  0  0  0  0  0  0  0
    0.4868    0.0557    4.5016 C   0  0  0  0  0  0  0  0  0  0  0  0
    0.3309    0.7251    5.9054 C   0  0  0  0  0  0  0  0  0  0  0  0
    0.6741   -0.2014    7.0298 C   0  0  0  0  0  0  0  0  0  0  0  0
   -0.9558    1.4454    6.1013 C   0  0  0  0  0  0  0  0  0  0  0  0
    1.8732    0.0376    4.0446 N   0  0  0  0  0  0  0  0  0  0  0  0
    2.2640   -0.9559    3.1804 C   0  0  0  0  0  0  0  0  0  0  0  0
    3.6104   -1.0158    2.5043 C   0  0  0  0  0  0  0  0  0  0  0  0
    3.5849    0.0613    1.4438 C   0  0  0  0  0  0  0  0  0  0  0  0
    4.8734    0.1245    0.7055 C   0  0  0  0  0  0  0  0  0  0  0  0
    5.1231   -1.1807    0.1004 N   0  0  0  0  0  0  0  0  0  0  0  0
    5.3047   -1.2655   -1.2607 C   0  0  0  0  0  0  0  0  0  0  0  0
    5.3481   -2.4780   -1.9214 C   0  0  0  0  0  0  0  0  0  0  0  0
    5.4766   -3.4193   -2.5593 C   0  0  0  0  0  0  0  0  0  0  0  0
    5.6179   -4.6955   -3.1352 C   0  0  0  0  0  0  0  0  0  0  0  0
    7.0052   -5.0202   -3.1956 N   0  0  0  0  0  0  0  0  0  0  0  0
    7.6700   -5.2568   -4.4018 C   0  0  0  0  0  0  0  0  0  0  0  0
    7.7692   -5.0741   -2.0038 C   0  0  0  0  0  0  0  0  0  0  0  0
    4.9664   -4.6999   -4.4981 C   0  0  0  0  0  0  0  0  0  0  0  0
    4.8859   -5.7454   -2.3015 C   0  0  0  0  0  0  0  0  0  0  0  0
    5.4028   -0.2378   -1.9448 O   0  0  0  0  0  0  0  0  0  0  0  0
    5.1324   -2.3112    1.0037 C   0  0  0  0  0  0  0  0  0  0  0  0
    3.8825   -2.3704    1.8254 C   0  0  0  0  0  0  0  0  0  0  0  0
    1.4262   -1.8394    2.9046 O   0  0  0  0  0  0  0  0  0  0  0  0
    2.7650    1.1547    4.4192 C   0  0  0  0  0  0  0  0  0  0  0  0
    0.1090    1.6722    2.7734 O   0  0  0  0  0  0  0  0  0  0  0  0
   -2.6493   -0.8247    1.1095 C   0  0  0  0  0  0  0  0  0  0  0  0
   -1.4973   -1.6969    0.5602 C   0  0  0  0  0  0  0  0  0  0  0  0
   -1.0895   -1.1346   -0.7541 C   0  0  0  0  0  0  0  0  0  0  0  0
   -0.0933   -1.9538   -1.4063 N   0  0  0  0  0  0  0  0  0  0  0  0
   -0.4773   -3.3804   -1.5206 C   0  0  0  0  0  0  0  0  0  0  0  0
   -0.9819   -3.9147   -0.1776 C   0  0  0  0  0  0  0  0  0  0  0  0
   -2.0128   -3.0364    0.3888 O   0  0  0  0  0  0  0  0  0  0  0  0
   -4.0191    0.9433    3.3366 O   0  0  0  0  0  0  0  0  0  0  0  0
   -5.0378    3.0877    1.8277 C   0  0  0  0  0  0  0  0  0  0  0  0
   -5.9928    3.1894    0.6215 C   0  0  0  0  0  0  0  0  0  0  0  0
   -5.2665    3.5400   -0.6777 C   0  0  0  0  0  0  0  0  0  0  0  0
   -3.8722    3.3561   -3.1551 O   0  0  0  0  0  0  0  0  0  0  0  0
    1.6403    0.5833   -3.4554 C   0  0  0  0  0  0  0  0  0  0  0  0
    2.3088   -0.1886   -4.4011 C   0  0  0  0  0  0  0  0  0  0  0  0
    2.1923   -1.6187   -4.3436 C   0  0  0  0  0  0  0  0  0  0  0  0
    1.3913   -2.1589   -3.3332 C   0  0  0  0  0  0  0  0  0  0  0  0
    0.7113   -1.3663   -2.4026 C   0  0  0  0  0  0  0  0  0  0  0  0
    0.8469    0.0325   -2.4480 C   0  0  0  0  0  0  0  0  0  0  0  0
    4.6322   -0.8337    3.4165 F   0  0  0  0  0  0  0  0  0  0  0  0
  1  2  1  0  0  0  0
  2  3  1  0  0  0  0
  2  5  1  0  0  0  0
  3  4  1  0  0  0  0
  5  6  4  0  0  0  0
  5 10  4  0  0  0  0
  6  7  4  0  0  0  0
  7  8  4  0  0  0  0
  8  9  4  0  0  0  0
  9 10  4  0  0  0  0
 10 11  1  0  0  0  0
 11 12  4  0  0  0  0
 11 15  4  0  0  0  0
 12 13  1  0  0  0  0
 12 68  4  0  0  0  0
 13 14  1  0  0  0  0
 15 16  1  0  0  0  0
 15 67  4  0  0  0  0
 16 17  1  0  0  0  0
 17 18  1  0  0  0  0
 17 19  1  0  0  0  0
 17 20  1  0  0  0  0
 20 21  1  0  0  0  0
 21 22  1  0  0  0  0
 22 23  1  0  0  0  0
 22 66  2  0  0  0  0
 23 24  1  0  0  0  0
 23 65  1  0  0  0  0
 24 25  1  0  0  0  0
 25 26  1  0  0  0  0
 25 63  1  0  0  0  0
 26 27  1  0  0  0  0
 26 62  2  0  0  0  0
 27 28  1  0  0  0  0
 27 55  1  0  0  0  0
 28 29  1  0  0  0  0
 29 30  1  0  0  0  0
 29 54  2  0  0  0  0
 30 31  1  0  0  0  0
 30 34  1  0  0  0  0
 31 32  1  0  0  0  0
 31 33  1  0  0  0  0
 34 35  1  0  0  0  0
 34 53  1  0  0  0  0
 35 36  1  0  0  0  0
 35 52  2  0  0  0  0
 36 37  1  0  0  0  0
 36 51  1  0  0  0  0
 36 73  1  0  0  0  0
 37 38  1  0  0  0  0
 38 39  1  0  0  0  0
 39 40  1  0  0  0  0
 39 50  1  0  0  0  0
 40 41  1  0  0  0  0
 40 49  2  0  0  0  0
 41 42  1  0  0  0  0
 42 43  1  0  0  0  0
 43 44  1  0  0  0  0
 43 47  1  0  0  0  0
 43 48  1  0  0  0  0
 44 45  1  0  0  0  0
 44 46  1  0  0  0  0
 50 51  1  0  0  0  0
 55 56  1  0  0  0  0
 56 57  1  0  0  0  0
 56 61  1  0  0  0  0
 57 58  1  0  0  0  0
 58 59  1  0  0  0  0
 58 71  1  0  0  0  0
 59 60  1  0  0  0  0
 60 61  1  0  0  0  0
 63 64  1  0  0  0  0
 64 65  1  0  0  0  0
 67 68  4  0  0  0  0
 67 72  4  0  0  0  0
 68 69  4  0  0  0  0
 69 70  4  0  0  0  0
 70 71  4  0  0  0  0
 71 72  4  0  0  0  0
M  END
$$$$
