mol_ETKDG2_103
  PyMOL3.1          3D                             0

 73 79  0  0  0  0  0  0  0  0999 V2000
   -3.2149    3.9731   -2.0815 C   0  0  0  0  0  0  0  0  0  0  0  0
   -1.8963    4.0704   -1.4337 C   0  0  0  0  0  0  0  0  0  0  0  0
   -0.8035    4.2896   -2.3047 O   0  0  0  0  0  0  0  0  0  0  0  0
   -0.4311    3.2335   -3.1541 C   0  0  0  0  0  0  0  0  0  0  0  0
   -1.8327    5.0920   -0.3739 C   0  0  0  0  0  0  0  0  0  0  0  0
   -1.6230    6.3479   -0.7366 N   0  0  0  0  0  0  0  0  0  0  0  0
   -1.5963    7.3462    0.1732 C   0  0  0  0  0  0  0  0  0  0  0  0
   -1.8070    7.1014    1.5344 C   0  0  0  0  0  0  0  0  0  0  0  0
   -2.0519    5.7812    1.9331 C   0  0  0  0  0  0  0  0  0  0  0  0
   -2.0368    4.7669    0.9631 C   0  0  0  0  0  0  0  0  0  0  0  0
   -2.2235    3.4039    1.3948 C   0  0  0  0  0  0  0  0  0  0  0  0
   -3.4396    2.8457    1.6024 N   0  0  0  0  0  0  0  0  0  0  0  0
   -4.7851    3.4781    1.3695 C   0  0  0  0  0  0  0  0  0  0  0  0
   -5.5194    3.7947    2.5868 C   0  0  0  0  0  0  0  0  0  0  0  0
   -1.1939    2.4469    1.5852 C   0  0  0  0  0  0  0  0  0  0  0  0
    0.2779    2.5112    1.2910 C   0  0  0  0  0  0  0  0  0  0  0  0
    1.2345    3.0422    2.4291 C   0  0  0  0  0  0  0  0  0  0  0  0
    2.6473    3.0327    1.8646 C   0  0  0  0  0  0  0  0  0  0  0  0
    0.9814    4.4629    2.7770 C   0  0  0  0  0  0  0  0  0  0  0  0
    1.1661    2.2033    3.6754 C   0  0  0  0  0  0  0  0  0  0  0  0
    2.0275    0.9756    3.7402 O   0  0  0  0  0  0  0  0  0  0  0  0
    2.6672    0.5066    4.9306 C   0  0  0  0  0  0  0  0  0  0  0  0
    3.5015   -0.7568    4.8666 C   0  0  0  0  0  0  0  0  0  0  0  0
    3.6340   -1.2221    3.5155 N   0  0  0  0  0  0  0  0  0  0  0  0
    4.4078   -2.3641    3.3016 N   0  0  0  0  0  0  0  0  0  0  0  0
    3.9079   -3.4406    2.6297 C   0  0  0  0  0  0  0  0  0  0  0  0
    2.5029   -3.3732    2.1200 C   0  0  0  0  0  0  0  0  0  0  0  0
    2.3275   -4.0733    0.8685 N   0  0  0  0  0  0  0  0  0  0  0  0
    2.2940   -3.4539   -0.3194 C   0  0  0  0  0  0  0  0  0  0  0  0
    1.9207   -4.2951   -1.4954 C   0  0  0  0  0  0  0  0  0  0  0  0
    3.1081   -4.6450   -2.4511 C   0  0  0  0  0  0  0  0  0  0  0  0
    2.7568   -5.7073   -3.4437 C   0  0  0  0  0  0  0  0  0  0  0  0
    4.3885   -4.9210   -1.7295 C   0  0  0  0  0  0  0  0  0  0  0  0
    0.8547   -3.5725   -2.1735 N   0  0  0  0  0  0  0  0  0  0  0  0
   -0.4234   -3.7224   -1.6972 C   0  0  0  0  0  0  0  0  0  0  0  0
   -1.6128   -2.9779   -2.2211 C   0  0  0  0  0  0  0  0  0  0  0  0
   -2.9436   -3.6215   -1.8434 C   0  0  0  0  0  0  0  0  0  0  0  0
   -4.0724   -2.7864   -2.3251 C   0  0  0  0  0  0  0  0  0  0  0  0
   -3.9274   -1.3921   -1.8832 N   0  0  0  0  0  0  0  0  0  0  0  0
   -4.9385   -0.7178   -1.2790 C   0  0  0  0  0  0  0  0  0  0  0  0
   -6.0636   -1.3953   -0.9109 C   0  0  0  0  0  0  0  0  0  0  0  0
   -7.0456   -1.9293   -0.6664 C   0  0  0  0  0  0  0  0  0  0  0  0
   -8.1021   -2.8390   -0.4696 C   0  0  0  0  0  0  0  0  0  0  0  0
   -8.6911   -3.1691   -1.7282 N   0  0  0  0  0  0  0  0  0  0  0  0
  -10.0754   -3.2359   -1.9189 C   0  0  0  0  0  0  0  0  0  0  0  0
   -7.8910   -3.5549   -2.8198 C   0  0  0  0  0  0  0  0  0  0  0  0
   -7.5698   -4.1263    0.1846 C   0  0  0  0  0  0  0  0  0  0  0  0
   -9.1167   -2.2615    0.4701 C   0  0  0  0  0  0  0  0  0  0  0  0
   -4.8406    0.5000   -1.0387 O   0  0  0  0  0  0  0  0  0  0  0  0
   -2.6708   -0.7510   -2.1089 C   0  0  0  0  0  0  0  0  0  0  0  0
   -1.5516   -1.5809   -1.6167 C   0  0  0  0  0  0  0  0  0  0  0  0
   -0.6005   -4.5108   -0.7464 O   0  0  0  0  0  0  0  0  0  0  0  0
    1.2027   -2.6154   -3.2426 C   0  0  0  0  0  0  0  0  0  0  0  0
    2.4207   -2.2435   -0.3794 O   0  0  0  0  0  0  0  0  0  0  0  0
    1.5292   -3.9676    3.2006 C   0  0  0  0  0  0  0  0  0  0  0  0
    0.0213   -3.8544    2.8688 C   0  0  0  0  0  0  0  0  0  0  0  0
   -0.3776   -2.4391    3.1234 C   0  0  0  0  0  0  0  0  0  0  0  0
   -1.7986   -2.2395    2.9830 N   0  0  0  0  0  0  0  0  0  0  0  0
   -2.6301   -3.1845    3.7469 C   0  0  0  0  0  0  0  0  0  0  0  0
   -2.1329   -4.6277    3.5637 C   0  0  0  0  0  0  0  0  0  0  0  0
   -0.6879   -4.7284    3.7800 O   0  0  0  0  0  0  0  0  0  0  0  0
    4.5659   -4.4836    2.4761 O   0  0  0  0  0  0  0  0  0  0  0  0
    5.7841   -2.3002    3.7810 C   0  0  0  0  0  0  0  0  0  0  0  0
    5.7909   -1.8176    5.2491 C   0  0  0  0  0  0  0  0  0  0  0  0
    4.9277   -0.5697    5.4603 C   0  0  0  0  0  0  0  0  0  0  0  0
    2.5998    1.0738    6.0386 O   0  0  0  0  0  0  0  0  0  0  0  0
   -1.8833    1.2968    1.9982 C   0  0  0  0  0  0  0  0  0  0  0  0
   -3.2476    1.5750    1.9838 C   0  0  0  0  0  0  0  0  0  0  0  0
   -4.1786    0.5344    2.3151 C   0  0  0  0  0  0  0  0  0  0  0  0
   -3.6583   -0.7192    2.6282 C   0  0  0  0  0  0  0  0  0  0  0  0
   -2.2833   -0.9710    2.6483 C   0  0  0  0  0  0  0  0  0  0  0  0
   -1.3781    0.0458    2.3117 C   0  0  0  0  0  0  0  0  0  0  0  0
   -1.5922   -2.9219   -3.5994 F   0  0  0  0  0  0  0  0  0  0  0  0
  1  2  1  0  0  0  0
  2  3  1  0  0  0  0
  2  5  1  0  0  0  0
  3  4  1  0  0  0  0
  5  6  4  0  0  0  0
  5 10  4  0  0  0  0
  6  7  4  0  0  0  0
  7  8  4  0  0  0  0
  8  9  4  0  0  0  0
  9 10  4  0  0  0  0
 10 11  1  0  0  0  0
 11 12  4  0  0  0  0
 11 15  4  0  0  0  0
 12 13  1  0  0  0  0
 12 68  4  0  0  0  0
 13 14  1  0  0  0  0
 15 16  1  0  0  0  0
 15 67  4  0  0  0  0
 16 17  1  0  0  0  0
 17 18  1  0  0  0  0
 17 19  1  0  0  0  0
 17 20  1  0  0  0  0
 20 21  1  0  0  0  0
 21 22  1  0  0  0  0
 22 23  1  0  0  0  0
 22 66  2  0  0  0  0
 23 24  1  0  0  0  0
 23 65  1  0  0  0  0
 24 25  1  0  0  0  0
 25 26  1  0  0  0  0
 25 63  1  0  0  0  0
 26 27  1  0  0  0  0
 26 62  2  0  0  0  0
 27 28  1  0  0  0  0
 27 55  1  0  0  0  0
 28 29  1  0  0  0  0
 29 30  1  0  0  0  0
 29 54  2  0  0  0  0
 30 31  1  0  0  0  0
 30 34  1  0  0  0  0
 31 32  1  0  0  0  0
 31 33  1  0  0  0  0
 34 35  1  0  0  0  0
 34 53  1  0  0  0  0
 35 36  1  0  0  0  0
 35 52  2  0  0  0  0
 36 37  1  0  0  0  0
 36 51  1  0  0  0  0
 36 73  1  0  0  0  0
 37 38  1  0  0  0  0
 38 39  1  0  0  0  0
 39 40  1  0  0  0  0
 39 50  1  0  0  0  0
 40 41  1  0  0  0  0
 40 49  2  0  0  0  0
 41 42  1  0  0  0  0
 42 43  1  0  0  0  0
 43 44  1  0  0  0  0
 43 47  1  0  0  0  0
 43 48  1  0  0  0  0
 44 45  1  0  0  0  0
 44 46  1  0  0  0  0
 50 51  1  0  0  0  0
 55 56  1  0  0  0  0
 56 57  1  0  0  0  0
 56 61  1  0  0  0  0
 57 58  1  0  0  0  0
 58 59  1  0  0  0  0
 58 71  1  0  0  0  0
 59 60  1  0  0  0  0
 60 61  1  0  0  0  0
 63 64  1  0  0  0  0
 64 65  1  0  0  0  0
 67 68  4  0  0  0  0
 67 72  4  0  0  0  0
 68 69  4  0  0  0  0
 69 70  4  0  0  0  0
 70 71  4  0  0  0  0
 71 72  4  0  0  0  0
M  END
$$$$
