mol_ETKDG3_173
  PyMOL3.1          3D                             0

 73 79  0  0  0  0  0  0  0  0999 V2000
    0.1301   -7.3278   -3.4114 C   0  0  0  0  0  0  0  0  0  0  0  0
   -0.0107   -6.9269   -1.9981 C   0  0  0  0  0  0  0  0  0  0  0  0
   -1.1612   -7.3869   -1.3369 O   0  0  0  0  0  0  0  0  0  0  0  0
   -2.3882   -6.7844   -1.6848 C   0  0  0  0  0  0  0  0  0  0  0  0
    1.1468   -7.3128   -1.1721 C   0  0  0  0  0  0  0  0  0  0  0  0
    1.3123   -8.5911   -0.8840 N   0  0  0  0  0  0  0  0  0  0  0  0
    2.3856   -9.0177   -0.1860 C   0  0  0  0  0  0  0  0  0  0  0  0
    3.3777   -8.1324    0.2509 C   0  0  0  0  0  0  0  0  0  0  0  0
    3.2219   -6.7731   -0.0491 C   0  0  0  0  0  0  0  0  0  0  0  0
    2.0713   -6.3740   -0.7433 C   0  0  0  0  0  0  0  0  0  0  0  0
    1.8790   -4.9717   -0.9907 C   0  0  0  0  0  0  0  0  0  0  0  0
    2.4302   -4.3160   -2.0415 N   0  0  0  0  0  0  0  0  0  0  0  0
    3.2824   -4.8934   -3.1374 C   0  0  0  0  0  0  0  0  0  0  0  0
    4.6802   -4.4748   -3.0699 C   0  0  0  0  0  0  0  0  0  0  0  0
    1.0308   -4.1153   -0.2498 C   0  0  0  0  0  0  0  0  0  0  0  0
    0.1105   -4.3985    0.9035 C   0  0  0  0  0  0  0  0  0  0  0  0
    0.7574   -4.3434    2.3425 C   0  0  0  0  0  0  0  0  0  0  0  0
    1.7130   -5.4738    2.6195 C   0  0  0  0  0  0  0  0  0  0  0  0
   -0.3410   -4.5496    3.3510 C   0  0  0  0  0  0  0  0  0  0  0  0
    1.4497   -3.0345    2.5919 C   0  0  0  0  0  0  0  0  0  0  0  0
    0.5309   -1.9731    3.1317 O   0  0  0  0  0  0  0  0  0  0  0  0
    0.8929   -1.0038    4.0819 C   0  0  0  0  0  0  0  0  0  0  0  0
   -0.1739   -0.0450    4.5630 C   0  0  0  0  0  0  0  0  0  0  0  0
   -1.4355   -0.4256    4.0026 N   0  0  0  0  0  0  0  0  0  0  0  0
   -2.5534    0.3045    4.3682 N   0  0  0  0  0  0  0  0  0  0  0  0
   -3.3637    0.8617    3.4201 C   0  0  0  0  0  0  0  0  0  0  0  0
   -3.0200    0.6686    1.9720 C   0  0  0  0  0  0  0  0  0  0  0  0
   -4.1993    0.4728    1.1583 N   0  0  0  0  0  0  0  0  0  0  0  0
   -4.5854   -0.7449    0.7221 C   0  0  0  0  0  0  0  0  0  0  0  0
   -5.7200   -0.7549   -0.2512 C   0  0  0  0  0  0  0  0  0  0  0  0
   -7.0757   -1.2433    0.3493 C   0  0  0  0  0  0  0  0  0  0  0  0
   -8.2358   -0.9220   -0.5363 C   0  0  0  0  0  0  0  0  0  0  0  0
   -7.2858   -0.8343    1.7699 C   0  0  0  0  0  0  0  0  0  0  0  0
   -5.2936   -1.5894   -1.3799 N   0  0  0  0  0  0  0  0  0  0  0  0
   -4.5201   -1.0176   -2.3658 C   0  0  0  0  0  0  0  0  0  0  0  0
   -3.9253   -1.7682   -3.5336 C   0  0  0  0  0  0  0  0  0  0  0  0
   -2.7606   -2.5597   -2.9838 C   0  0  0  0  0  0  0  0  0  0  0  0
   -2.1007   -3.3642   -4.0556 C   0  0  0  0  0  0  0  0  0  0  0  0
   -1.6499   -2.4401   -5.0974 N   0  0  0  0  0  0  0  0  0  0  0  0
   -0.3259   -2.4081   -5.4491 C   0  0  0  0  0  0  0  0  0  0  0  0
    0.2709   -1.2940   -6.0192 C   0  0  0  0  0  0  0  0  0  0  0  0
    0.9046   -0.4589   -6.5178 C   0  0  0  0  0  0  0  0  0  0  0  0
    1.5225    0.6395   -7.1326 C   0  0  0  0  0  0  0  0  0  0  0  0
    2.3768    0.1939   -8.1852 N   0  0  0  0  0  0  0  0  0  0  0  0
    1.8504   -0.6337   -9.1986 C   0  0  0  0  0  0  0  0  0  0  0  0
    3.7274    0.5404   -8.2839 C   0  0  0  0  0  0  0  0  0  0  0  0
    2.2809    1.4227   -6.0863 C   0  0  0  0  0  0  0  0  0  0  0  0
    0.4644    1.5792   -7.7049 C   0  0  0  0  0  0  0  0  0  0  0  0
    0.3929   -3.3755   -5.2047 O   0  0  0  0  0  0  0  0  0  0  0  0
   -2.6534   -1.5878   -5.6740 C   0  0  0  0  0  0  0  0  0  0  0  0
   -3.3967   -0.8276   -4.6356 C   0  0  0  0  0  0  0  0  0  0  0  0
   -4.2681    0.2010   -2.2637 O   0  0  0  0  0  0  0  0  0  0  0  0
   -5.5963   -3.0264   -1.3547 C   0  0  0  0  0  0  0  0  0  0  0  0
   -3.9556   -1.7399    1.0216 O   0  0  0  0  0  0  0  0  0  0  0  0
   -2.2133    1.9159    1.4259 C   0  0  0  0  0  0  0  0  0  0  0  0
   -1.6690    1.7231   -0.0178 C   0  0  0  0  0  0  0  0  0  0  0  0
   -0.5003    0.8091    0.0683 C   0  0  0  0  0  0  0  0  0  0  0  0
    0.1493    0.6294   -1.2003 N   0  0  0  0  0  0  0  0  0  0  0  0
    0.5017    1.8679   -1.9060 C   0  0  0  0  0  0  0  0  0  0  0  0
   -0.6661    2.8686   -1.8707 C   0  0  0  0  0  0  0  0  0  0  0  0
   -1.2243    3.0148   -0.5151 O   0  0  0  0  0  0  0  0  0  0  0  0
   -4.3547    1.5426    3.7290 O   0  0  0  0  0  0  0  0  0  0  0  0
   -2.8201    0.3777    5.8065 C   0  0  0  0  0  0  0  0  0  0  0  0
   -1.5266    0.7985    6.5490 C   0  0  0  0  0  0  0  0  0  0  0  0
   -0.3117   -0.0326    6.1148 C   0  0  0  0  0  0  0  0  0  0  0  0
    2.0345   -0.8703    4.5725 O   0  0  0  0  0  0  0  0  0  0  0  0
    1.1628   -2.8787   -0.9054 C   0  0  0  0  0  0  0  0  0  0  0  0
    2.0197   -3.0438   -1.9895 C   0  0  0  0  0  0  0  0  0  0  0  0
    2.2889   -1.9279   -2.8423 C   0  0  0  0  0  0  0  0  0  0  0  0
    1.6480   -0.7261   -2.5450 C   0  0  0  0  0  0  0  0  0  0  0  0
    0.7824   -0.5901   -1.4631 C   0  0  0  0  0  0  0  0  0  0  0  0
    0.5290   -1.6837   -0.6179 C   0  0  0  0  0  0  0  0  0  0  0  0
   -4.8758   -2.5763   -4.1358 F   0  0  0  0  0  0  0  0  0  0  0  0
  1  2  1  0  0  0  0
  2  3  1  0  0  0  0
  2  5  1  0  0  0  0
  3  4  1  0  0  0  0
  5  6  4  0  0  0  0
  5 10  4  0  0  0  0
  6  7  4  0  0  0  0
  7  8  4  0  0  0  0
  8  9  4  0  0  0  0
  9 10  4  0  0  0  0
 10 11  1  0  0  0  0
 11 12  4  0  0  0  0
 11 15  4  0  0  0  0
 12 13  1  0  0  0  0
 12 68  4  0  0  0  0
 13 14  1  0  0  0  0
 15 16  1  0  0  0  0
 15 67  4  0  0  0  0
 16 17  1  0  0  0  0
 17 18  1  0  0  0  0
 17 19  1  0  0  0  0
 17 20  1  0  0  0  0
 20 21  1  0  0  0  0
 21 22  1  0  0  0  0
 22 23  1  0  0  0  0
 22 66  2  0  0  0  0
 23 24  1  0  0  0  0
 23 65  1  0  0  0  0
 24 25  1  0  0  0  0
 25 26  1  0  0  0  0
 25 63  1  0  0  0  0
 26 27  1  0  0  0  0
 26 62  2  0  0  0  0
 27 28  1  0  0  0  0
 27 55  1  0  0  0  0
 28 29  1  0  0  0  0
 29 30  1  0  0  0  0
 29 54  2  0  0  0  0
 30 31  1  0  0  0  0
 30 34  1  0  0  0  0
 31 32  1  0  0  0  0
 31 33  1  0  0  0  0
 34 35  1  0  0  0  0
 34 53  1  0  0  0  0
 35 36  1  0  0  0  0
 35 52  2  0  0  0  0
 36 37  1  0  0  0  0
 36 51  1  0  0  0  0
 36 73  1  0  0  0  0
 37 38  1  0  0  0  0
 38 39  1  0  0  0  0
 39 40  1  0  0  0  0
 39 50  1  0  0  0  0
 40 41  1  0  0  0  0
 40 49  2  0  0  0  0
 41 42  1  0  0  0  0
 42 43  1  0  0  0  0
 43 44  1  0  0  0  0
 43 47  1  0  0  0  0
 43 48  1  0  0  0  0
 44 45  1  0  0  0  0
 44 46  1  0  0  0  0
 50 51  1  0  0  0  0
 55 56  1  0  0  0  0
 56 57  1  0  0  0  0
 56 61  1  0  0  0  0
 57 58  1  0  0  0  0
 58 59  1  0  0  0  0
 58 71  1  0  0  0  0
 59 60  1  0  0  0  0
 60 61  1  0  0  0  0
 63 64  1  0  0  0  0
 64 65  1  0  0  0  0
 67 68  4  0  0  0  0
 67 72  4  0  0  0  0
 68 69  4  0  0  0  0
 69 70  4  0  0  0  0
 70 71  4  0  0  0  0
 71 72  4  0  0  0  0
M  END
$$$$
