mol_ETKDG0_338
  PyMOL3.1          3D                             0

 73 79  0  0  0  0  0  0  0  0999 V2000
   -4.9008    2.3204   -1.1008 C   0  0  0  0  0  0  0  0  0  0  0  0
   -3.6087    3.0048   -1.2676 C   0  0  0  0  0  0  0  0  0  0  0  0
   -3.2350    3.9067   -0.2570 O   0  0  0  0  0  0  0  0  0  0  0  0
   -2.9459    3.3907    1.0210 C   0  0  0  0  0  0  0  0  0  0  0  0
   -3.5038    3.7296   -2.5384 C   0  0  0  0  0  0  0  0  0  0  0  0
   -4.1743    4.8654   -2.6551 N   0  0  0  0  0  0  0  0  0  0  0  0
   -4.1507    5.5743   -3.8005 C   0  0  0  0  0  0  0  0  0  0  0  0
   -3.4325    5.1358   -4.9144 C   0  0  0  0  0  0  0  0  0  0  0  0
   -2.7327    3.9331   -4.8128 C   0  0  0  0  0  0  0  0  0  0  0  0
   -2.7583    3.2358   -3.5948 C   0  0  0  0  0  0  0  0  0  0  0  0
   -1.9978    2.0163   -3.5010 C   0  0  0  0  0  0  0  0  0  0  0  0
   -2.3946    0.8544   -4.0676 N   0  0  0  0  0  0  0  0  0  0  0  0
   -3.6828    0.5734   -4.7856 C   0  0  0  0  0  0  0  0  0  0  0  0
   -3.5227    0.5237   -6.2439 C   0  0  0  0  0  0  0  0  0  0  0  0
   -0.7872    1.8355   -2.7864 C   0  0  0  0  0  0  0  0  0  0  0  0
   -0.0456    2.7671   -1.8675 C   0  0  0  0  0  0  0  0  0  0  0  0
    0.9467    3.7615   -2.5875 C   0  0  0  0  0  0  0  0  0  0  0  0
    0.2641    4.7079   -3.5398 C   0  0  0  0  0  0  0  0  0  0  0  0
    1.5565    4.6564   -1.5379 C   0  0  0  0  0  0  0  0  0  0  0  0
    1.9965    2.9834   -3.3209 C   0  0  0  0  0  0  0  0  0  0  0  0
    3.1180    2.5098   -2.4255 O   0  0  0  0  0  0  0  0  0  0  0  0
    4.4911    2.7016   -2.7200 C   0  0  0  0  0  0  0  0  0  0  0  0
    5.5257    2.2056   -1.7441 C   0  0  0  0  0  0  0  0  0  0  0  0
    4.9097    1.8035   -0.5043 N   0  0  0  0  0  0  0  0  0  0  0  0
    5.7804    1.3589    0.4902 N   0  0  0  0  0  0  0  0  0  0  0  0
    5.6194    0.1415    1.0839 C   0  0  0  0  0  0  0  0  0  0  0  0
    4.4234   -0.6851    0.7268 C   0  0  0  0  0  0  0  0  0  0  0  0
    3.8837   -1.3597    1.8922 N   0  0  0  0  0  0  0  0  0  0  0  0
    2.8374   -0.8947    2.5795 C   0  0  0  0  0  0  0  0  0  0  0  0
    2.3012   -1.7753    3.6592 C   0  0  0  0  0  0  0  0  0  0  0  0
    2.7456   -1.4071    5.1001 C   0  0  0  0  0  0  0  0  0  0  0  0
    2.5684   -2.5218    6.0732 C   0  0  0  0  0  0  0  0  0  0  0  0
    4.0531   -0.7148    5.1979 C   0  0  0  0  0  0  0  0  0  0  0  0
    0.8506   -1.7536    3.5180 N   0  0  0  0  0  0  0  0  0  0  0  0
    0.2912   -2.5822    2.5972 C   0  0  0  0  0  0  0  0  0  0  0  0
   -1.1700   -2.6028    2.2491 C   0  0  0  0  0  0  0  0  0  0  0  0
   -1.4155   -1.3615    1.4245 C   0  0  0  0  0  0  0  0  0  0  0  0
   -2.8354   -1.2713    0.9836 C   0  0  0  0  0  0  0  0  0  0  0  0
   -3.1449   -2.4900    0.2342 N   0  0  0  0  0  0  0  0  0  0  0  0
   -3.5679   -2.4250   -1.0648 C   0  0  0  0  0  0  0  0  0  0  0  0
   -3.5651   -3.5409   -1.8745 C   0  0  0  0  0  0  0  0  0  0  0  0
   -3.6521   -4.4165   -2.6126 C   0  0  0  0  0  0  0  0  0  0  0  0
   -3.7334   -5.5665   -3.4050 C   0  0  0  0  0  0  0  0  0  0  0  0
   -5.0984   -5.8190   -3.7014 N   0  0  0  0  0  0  0  0  0  0  0  0
   -5.8053   -6.8767   -3.1252 C   0  0  0  0  0  0  0  0  0  0  0  0
   -5.8336   -4.8817   -4.4795 C   0  0  0  0  0  0  0  0  0  0  0  0
   -3.0845   -6.7263   -2.6615 C   0  0  0  0  0  0  0  0  0  0  0  0
   -2.9518   -5.4073   -4.6995 C   0  0  0  0  0  0  0  0  0  0  0  0
   -3.9235   -1.3517   -1.5557 O   0  0  0  0  0  0  0  0  0  0  0  0
   -2.9312   -3.7296    0.9288 C   0  0  0  0  0  0  0  0  0  0  0  0
   -1.5379   -3.8344    1.4108 C   0  0  0  0  0  0  0  0  0  0  0  0
    1.0594   -3.3474    1.9813 O   0  0  0  0  0  0  0  0  0  0  0  0
    0.0659   -0.7605    4.2818 C   0  0  0  0  0  0  0  0  0  0  0  0
    2.2827    0.1356    2.2281 O   0  0  0  0  0  0  0  0  0  0  0  0
    4.8009   -1.7700   -0.3551 C   0  0  0  0  0  0  0  0  0  0  0  0
    3.5765   -2.5677   -0.8770 C   0  0  0  0  0  0  0  0  0  0  0  0
    2.8907   -1.6915   -1.8593 C   0  0  0  0  0  0  0  0  0  0  0  0
    1.7834   -2.3575   -2.4880 N   0  0  0  0  0  0  0  0  0  0  0  0
    2.1045   -3.6615   -3.0855 C   0  0  0  0  0  0  0  0  0  0  0  0
    2.9300   -4.5177   -2.1106 C   0  0  0  0  0  0  0  0  0  0  0  0
    4.0591   -3.7596   -1.5555 O   0  0  0  0  0  0  0  0  0  0  0  0
    6.4493   -0.3038    1.8995 O   0  0  0  0  0  0  0  0  0  0  0  0
    6.8178    2.3024    0.8993 C   0  0  0  0  0  0  0  0  0  0  0  0
    7.5587    2.8183   -0.3514 C   0  0  0  0  0  0  0  0  0  0  0  0
    6.5872    3.2935   -1.4323 C   0  0  0  0  0  0  0  0  0  0  0  0
    4.9386    3.2575   -3.7573 O   0  0  0  0  0  0  0  0  0  0  0  0
   -0.4557    0.4941   -3.0320 C   0  0  0  0  0  0  0  0  0  0  0  0
   -1.4622   -0.0667   -3.8121 C   0  0  0  0  0  0  0  0  0  0  0  0
   -1.3848   -1.4447   -4.1781 C   0  0  0  0  0  0  0  0  0  0  0  0
   -0.2969   -2.1679   -3.7059 C   0  0  0  0  0  0  0  0  0  0  0  0
    0.7041   -1.5931   -2.9298 C   0  0  0  0  0  0  0  0  0  0  0  0
    0.6233   -0.2383   -2.5633 C   0  0  0  0  0  0  0  0  0  0  0  0
   -1.9625   -2.6598    3.3844 F   0  0  0  0  0  0  0  0  0  0  0  0
  1  2  1  0  0  0  0
  2  3  1  0  0  0  0
  2  5  1  0  0  0  0
  3  4  1  0  0  0  0
  5  6  4  0  0  0  0
  5 10  4  0  0  0  0
  6  7  4  0  0  0  0
  7  8  4  0  0  0  0
  8  9  4  0  0  0  0
  9 10  4  0  0  0  0
 10 11  1  0  0  0  0
 11 12  4  0  0  0  0
 11 15  4  0  0  0  0
 12 13  1  0  0  0  0
 12 68  4  0  0  0  0
 13 14  1  0  0  0  0
 15 16  1  0  0  0  0
 15 67  4  0  0  0  0
 16 17  1  0  0  0  0
 17 18  1  0  0  0  0
 17 19  1  0  0  0  0
 17 20  1  0  0  0  0
 20 21  1  0  0  0  0
 21 22  1  0  0  0  0
 22 23  1  0  0  0  0
 22 66  2  0  0  0  0
 23 24  1  0  0  0  0
 23 65  1  0  0  0  0
 24 25  1  0  0  0  0
 25 26  1  0  0  0  0
 25 63  1  0  0  0  0
 26 27  1  0  0  0  0
 26 62  2  0  0  0  0
 27 28  1  0  0  0  0
 27 55  1  0  0  0  0
 28 29  1  0  0  0  0
 29 30  1  0  0  0  0
 29 54  2  0  0  0  0
 30 31  1  0  0  0  0
 30 34  1  0  0  0  0
 31 32  1  0  0  0  0
 31 33  1  0  0  0  0
 34 35  1  0  0  0  0
 34 53  1  0  0  0  0
 35 36  1  0  0  0  0
 35 52  2  0  0  0  0
 36 37  1  0  0  0  0
 36 51  1  0  0  0  0
 36 73  1  0  0  0  0
 37 38  1  0  0  0  0
 38 39  1  0  0  0  0
 39 40  1  0  0  0  0
 39 50  1  0  0  0  0
 40 41  1  0  0  0  0
 40 49  2  0  0  0  0
 41 42  1  0  0  0  0
 42 43  1  0  0  0  0
 43 44  1  0  0  0  0
 43 47  1  0  0  0  0
 43 48  1  0  0  0  0
 44 45  1  0  0  0  0
 44 46  1  0  0  0  0
 50 51  1  0  0  0  0
 55 56  1  0  0  0  0
 56 57  1  0  0  0  0
 56 61  1  0  0  0  0
 57 58  1  0  0  0  0
 58 59  1  0  0  0  0
 58 71  1  0  0  0  0
 59 60  1  0  0  0  0
 60 61  1  0  0  0  0
 63 64  1  0  0  0  0
 64 65  1  0  0  0  0
 67 68  4  0  0  0  0
 67 72  4  0  0  0  0
 68 69  4  0  0  0  0
 69 70  4  0  0  0  0
 70 71  4  0  0  0  0
 71 72  4  0  0  0  0
M  END
$$$$
