mol_ETKDG2_130
  PyMOL3.1          3D                             0

 73 79  0  0  0  0  0  0  0  0999 V2000
    4.8883    1.5697   -1.2302 C   0  0  0  0  0  0  0  0  0  0  0  0
    3.8225    2.3203   -0.5344 C   0  0  0  0  0  0  0  0  0  0  0  0
    4.0929    2.6043    0.8354 O   0  0  0  0  0  0  0  0  0  0  0  0
    4.0514    1.5320    1.7412 C   0  0  0  0  0  0  0  0  0  0  0  0
    3.4978    3.6061   -1.1922 C   0  0  0  0  0  0  0  0  0  0  0  0
    4.2523    4.6523   -0.9023 N   0  0  0  0  0  0  0  0  0  0  0  0
    4.0529    5.8489   -1.4937 C   0  0  0  0  0  0  0  0  0  0  0  0
    3.0487    6.0405   -2.4477 C   0  0  0  0  0  0  0  0  0  0  0  0
    2.2463    4.9455   -2.7826 C   0  0  0  0  0  0  0  0  0  0  0  0
    2.4669    3.7272   -2.1289 C   0  0  0  0  0  0  0  0  0  0  0  0
    1.5960    2.6297   -2.4532 C   0  0  0  0  0  0  0  0  0  0  0  0
    1.7750    1.8200   -3.5278 N   0  0  0  0  0  0  0  0  0  0  0  0
    2.8800    1.8641   -4.5476 C   0  0  0  0  0  0  0  0  0  0  0  0
    2.4465    2.4448   -5.8279 C   0  0  0  0  0  0  0  0  0  0  0  0
    0.4823    2.2066   -1.6845 C   0  0  0  0  0  0  0  0  0  0  0  0
   -0.0634    2.7117   -0.3810 C   0  0  0  0  0  0  0  0  0  0  0  0
   -1.0990    3.9161   -0.4742 C   0  0  0  0  0  0  0  0  0  0  0  0
   -0.3878    5.2594   -0.6403 C   0  0  0  0  0  0  0  0  0  0  0  0
   -1.7712    4.0122    0.8569 C   0  0  0  0  0  0  0  0  0  0  0  0
   -2.1376    3.7577   -1.5782 C   0  0  0  0  0  0  0  0  0  0  0  0
   -3.4535    3.1510   -1.1405 O   0  0  0  0  0  0  0  0  0  0  0  0
   -4.7366    3.6383   -1.5184 C   0  0  0  0  0  0  0  0  0  0  0  0
   -5.9741    2.9517   -0.9583 C   0  0  0  0  0  0  0  0  0  0  0  0
   -5.6249    2.1531    0.1764 N   0  0  0  0  0  0  0  0  0  0  0  0
   -6.6401    1.4998    0.8616 N   0  0  0  0  0  0  0  0  0  0  0  0
   -6.5598    0.1515    1.1233 C   0  0  0  0  0  0  0  0  0  0  0  0
   -5.3657   -0.6061    0.6517 C   0  0  0  0  0  0  0  0  0  0  0  0
   -4.8813   -1.5538    1.6368 N   0  0  0  0  0  0  0  0  0  0  0  0
   -3.8182   -1.2995    2.4245 C   0  0  0  0  0  0  0  0  0  0  0  0
   -3.3115   -2.4390    3.2402 C   0  0  0  0  0  0  0  0  0  0  0  0
   -3.7197   -2.4132    4.7448 C   0  0  0  0  0  0  0  0  0  0  0  0
   -3.5130   -3.7358    5.4226 C   0  0  0  0  0  0  0  0  0  0  0  0
   -5.0668   -1.8253    5.0013 C   0  0  0  0  0  0  0  0  0  0  0  0
   -1.8574   -2.4692    3.0422 N   0  0  0  0  0  0  0  0  0  0  0  0
   -1.3665   -3.0868    1.9061 C   0  0  0  0  0  0  0  0  0  0  0  0
    0.0898   -3.1333    1.4991 C   0  0  0  0  0  0  0  0  0  0  0  0
    0.3638   -4.2013    0.4275 C   0  0  0  0  0  0  0  0  0  0  0  0
    1.7817   -4.1236   -0.0747 C   0  0  0  0  0  0  0  0  0  0  0  0
    2.0998   -2.7405   -0.4897 N   0  0  0  0  0  0  0  0  0  0  0  0
    2.5719   -2.4067   -1.7386 C   0  0  0  0  0  0  0  0  0  0  0  0
    2.4292   -3.2471   -2.8189 C   0  0  0  0  0  0  0  0  0  0  0  0
    2.3871   -3.8958   -3.7908 C   0  0  0  0  0  0  0  0  0  0  0  0
    2.2396   -4.7977   -4.8649 C   0  0  0  0  0  0  0  0  0  0  0  0
    3.3926   -4.7917   -5.7058 N   0  0  0  0  0  0  0  0  0  0  0  0
    3.6033   -3.7434   -6.6272 C   0  0  0  0  0  0  0  0  0  0  0  0
    4.4856   -5.6604   -5.4538 C   0  0  0  0  0  0  0  0  0  0  0  0
    1.0004   -4.4275   -5.6804 C   0  0  0  0  0  0  0  0  0  0  0  0
    1.9910   -6.1951   -4.3228 C   0  0  0  0  0  0  0  0  0  0  0  0
    3.0937   -1.2975   -1.9399 O   0  0  0  0  0  0  0  0  0  0  0  0
    1.8539   -1.7125    0.4748 C   0  0  0  0  0  0  0  0  0  0  0  0
    0.4227   -1.7602    0.9225 C   0  0  0  0  0  0  0  0  0  0  0  0
   -2.1917   -3.6140    1.1426 O   0  0  0  0  0  0  0  0  0  0  0  0
   -0.9926   -1.7368    3.9862 C   0  0  0  0  0  0  0  0  0  0  0  0
   -3.2480   -0.2232    2.3664 O   0  0  0  0  0  0  0  0  0  0  0  0
   -5.6632   -1.3691   -0.6927 C   0  0  0  0  0  0  0  0  0  0  0  0
   -4.4108   -2.0762   -1.2859 C   0  0  0  0  0  0  0  0  0  0  0  0
   -3.6126   -1.0502   -2.0135 C   0  0  0  0  0  0  0  0  0  0  0  0
   -2.4681   -1.6296   -2.6691 N   0  0  0  0  0  0  0  0  0  0  0  0
   -2.7855   -2.7848   -3.5431 C   0  0  0  0  0  0  0  0  0  0  0  0
   -3.6924   -3.7851   -2.8059 C   0  0  0  0  0  0  0  0  0  0  0  0
   -4.8574   -3.1036   -2.2056 O   0  0  0  0  0  0  0  0  0  0  0  0
   -7.4755   -0.4560    1.7078 O   0  0  0  0  0  0  0  0  0  0  0  0
   -7.7421    2.3359    1.3353 C   0  0  0  0  0  0  0  0  0  0  0  0
   -8.2294    3.2499    0.1864 C   0  0  0  0  0  0  0  0  0  0  0  0
   -7.0810    3.9585   -0.5324 C   0  0  0  0  0  0  0  0  0  0  0  0
   -4.9130    4.5933   -2.2980 O   0  0  0  0  0  0  0  0  0  0  0  0
   -0.0165    1.1057   -2.4002 C   0  0  0  0  0  0  0  0  0  0  0  0
    0.7983    0.9047   -3.5145 C   0  0  0  0  0  0  0  0  0  0  0  0
    0.5082   -0.1845   -4.4025 C   0  0  0  0  0  0  0  0  0  0  0  0
   -0.5896   -0.9981   -4.0842 C   0  0  0  0  0  0  0  0  0  0  0  0
   -1.3852   -0.7829   -2.9597 C   0  0  0  0  0  0  0  0  0  0  0  0
   -1.0915    0.2784   -2.0844 C   0  0  0  0  0  0  0  0  0  0  0  0
    0.9060   -3.4287    2.5847 F   0  0  0  0  0  0  0  0  0  0  0  0
  1  2  1  0  0  0  0
  2  3  1  0  0  0  0
  2  5  1  0  0  0  0
  3  4  1  0  0  0  0
  5  6  4  0  0  0  0
  5 10  4  0  0  0  0
  6  7  4  0  0  0  0
  7  8  4  0  0  0  0
  8  9  4  0  0  0  0
  9 10  4  0  0  0  0
 10 11  1  0  0  0  0
 11 12  4  0  0  0  0
 11 15  4  0  0  0  0
 12 13  1  0  0  0  0
 12 68  4  0  0  0  0
 13 14  1  0  0  0  0
 15 16  1  0  0  0  0
 15 67  4  0  0  0  0
 16 17  1  0  0  0  0
 17 18  1  0  0  0  0
 17 19  1  0  0  0  0
 17 20  1  0  0  0  0
 20 21  1  0  0  0  0
 21 22  1  0  0  0  0
 22 23  1  0  0  0  0
 22 66  2  0  0  0  0
 23 24  1  0  0  0  0
 23 65  1  0  0  0  0
 24 25  1  0  0  0  0
 25 26  1  0  0  0  0
 25 63  1  0  0  0  0
 26 27  1  0  0  0  0
 26 62  2  0  0  0  0
 27 28  1  0  0  0  0
 27 55  1  0  0  0  0
 28 29  1  0  0  0  0
 29 30  1  0  0  0  0
 29 54  2  0  0  0  0
 30 31  1  0  0  0  0
 30 34  1  0  0  0  0
 31 32  1  0  0  0  0
 31 33  1  0  0  0  0
 34 35  1  0  0  0  0
 34 53  1  0  0  0  0
 35 36  1  0  0  0  0
 35 52  2  0  0  0  0
 36 37  1  0  0  0  0
 36 51  1  0  0  0  0
 36 73  1  0  0  0  0
 37 38  1  0  0  0  0
 38 39  1  0  0  0  0
 39 40  1  0  0  0  0
 39 50  1  0  0  0  0
 40 41  1  0  0  0  0
 40 49  2  0  0  0  0
 41 42  1  0  0  0  0
 42 43  1  0  0  0  0
 43 44  1  0  0  0  0
 43 47  1  0  0  0  0
 43 48  1  0  0  0  0
 44 45  1  0  0  0  0
 44 46  1  0  0  0  0
 50 51  1  0  0  0  0
 55 56  1  0  0  0  0
 56 57  1  0  0  0  0
 56 61  1  0  0  0  0
 57 58  1  0  0  0  0
 58 59  1  0  0  0  0
 58 71  1  0  0  0  0
 59 60  1  0  0  0  0
 60 61  1  0  0  0  0
 63 64  1  0  0  0  0
 64 65  1  0  0  0  0
 67 68  4  0  0  0  0
 67 72  4  0  0  0  0
 68 69  4  0  0  0  0
 69 70  4  0  0  0  0
 70 71  4  0  0  0  0
 71 72  4  0  0  0  0
M  END
$$$$
