mol_ETKDG4_213
  PyMOL3.1          3D                             0

 73 79  0  0  0  0  0  0  0  0999 V2000
    0.6856    6.2578    2.8308 C   0  0  0  0  0  0  0  0  0  0  0  0
    0.2515    5.1432    1.9603 C   0  0  0  0  0  0  0  0  0  0  0  0
   -0.9056    4.4491    2.4201 O   0  0  0  0  0  0  0  0  0  0  0  0
   -0.7057    3.5385    3.4828 C   0  0  0  0  0  0  0  0  0  0  0  0
   -0.0009    5.5640    0.5599 C   0  0  0  0  0  0  0  0  0  0  0  0
   -1.1389    6.1792    0.2838 N   0  0  0  0  0  0  0  0  0  0  0  0
   -1.4107    6.6406   -0.9604 C   0  0  0  0  0  0  0  0  0  0  0  0
   -0.4994    6.4952   -2.0138 C   0  0  0  0  0  0  0  0  0  0  0  0
    0.7154    5.8510   -1.7441 C   0  0  0  0  0  0  0  0  0  0  0  0
    0.9418    5.3639   -0.4432 C   0  0  0  0  0  0  0  0  0  0  0  0
    2.1702    4.6540   -0.1967 C   0  0  0  0  0  0  0  0  0  0  0  0
    3.3378    5.2741    0.1186 N   0  0  0  0  0  0  0  0  0  0  0  0
    3.5795    6.7501    0.3191 C   0  0  0  0  0  0  0  0  0  0  0  0
    4.3117    7.3745   -0.7933 C   0  0  0  0  0  0  0  0  0  0  0  0
    2.3280    3.2402   -0.1821 C   0  0  0  0  0  0  0  0  0  0  0  0
    1.3320    2.1181   -0.2916 C   0  0  0  0  0  0  0  0  0  0  0  0
    0.9400    1.5776   -1.7269 C   0  0  0  0  0  0  0  0  0  0  0  0
    0.0739    2.5610   -2.4960 C   0  0  0  0  0  0  0  0  0  0  0  0
    0.0505    0.3854   -1.5022 C   0  0  0  0  0  0  0  0  0  0  0  0
    2.1263    1.1719   -2.6162 C   0  0  0  0  0  0  0  0  0  0  0  0
    2.5651   -0.2664   -2.4664 O   0  0  0  0  0  0  0  0  0  0  0  0
    2.8503   -1.1505   -3.5467 C   0  0  0  0  0  0  0  0  0  0  0  0
    3.3039   -2.5745   -3.2168 C   0  0  0  0  0  0  0  0  0  0  0  0
    2.9435   -2.8995   -1.8642 N   0  0  0  0  0  0  0  0  0  0  0  0
    3.2198   -4.1841   -1.3961 N   0  0  0  0  0  0  0  0  0  0  0  0
    3.9300   -4.3815   -0.2356 C   0  0  0  0  0  0  0  0  0  0  0  0
    4.4155   -3.1797    0.5378 C   0  0  0  0  0  0  0  0  0  0  0  0
    4.3226   -3.3621    1.9726 N   0  0  0  0  0  0  0  0  0  0  0  0
    3.3996   -2.7313    2.7375 C   0  0  0  0  0  0  0  0  0  0  0  0
    3.5658   -2.8617    4.2193 C   0  0  0  0  0  0  0  0  0  0  0  0
    2.6431   -3.9145    4.9079 C   0  0  0  0  0  0  0  0  0  0  0  0
    3.1205   -4.2901    6.2707 C   0  0  0  0  0  0  0  0  0  0  0  0
    2.2960   -5.0823    4.0545 C   0  0  0  0  0  0  0  0  0  0  0  0
    3.3659   -1.5177    4.7822 N   0  0  0  0  0  0  0  0  0  0  0  0
    4.4322   -0.6311    4.7890 C   0  0  0  0  0  0  0  0  0  0  0  0
    4.3790    0.7984    5.2933 C   0  0  0  0  0  0  0  0  0  0  0  0
    5.7510    1.3605    5.7027 C   0  0  0  0  0  0  0  0  0  0  0  0
    5.6416    2.7981    6.1003 C   0  0  0  0  0  0  0  0  0  0  0  0
    4.9446    3.5928    5.0696 N   0  0  0  0  0  0  0  0  0  0  0  0
    5.4207    4.7923    4.5915 C   0  0  0  0  0  0  0  0  0  0  0  0
    6.6727    5.2635    4.9533 C   0  0  0  0  0  0  0  0  0  0  0  0
    7.6840    5.7783    5.2312 C   0  0  0  0  0  0  0  0  0  0  0  0
    8.9608    6.2355    5.6358 C   0  0  0  0  0  0  0  0  0  0  0  0
    9.1042    7.6373    5.3911 N   0  0  0  0  0  0  0  0  0  0  0  0
    9.1925    8.1240    4.0702 C   0  0  0  0  0  0  0  0  0  0  0  0
    9.0744    8.5979    6.4257 C   0  0  0  0  0  0  0  0  0  0  0  0
   10.0471    5.4656    4.8913 C   0  0  0  0  0  0  0  0  0  0  0  0
    9.1582    5.9326    7.1067 C   0  0  0  0  0  0  0  0  0  0  0  0
    4.7354    5.4644    3.8027 O   0  0  0  0  0  0  0  0  0  0  0  0
    3.7073    3.0687    4.5656 C   0  0  0  0  0  0  0  0  0  0  0  0
    3.8286    1.6519    4.1557 C   0  0  0  0  0  0  0  0  0  0  0  0
    5.5144   -1.0370    4.3254 O   0  0  0  0  0  0  0  0  0  0  0  0
    2.0146   -1.1181    5.1978 C   0  0  0  0  0  0  0  0  0  0  0  0
    2.5716   -2.0003    2.2211 O   0  0  0  0  0  0  0  0  0  0  0  0
    5.9267   -2.8803    0.1727 C   0  0  0  0  0  0  0  0  0  0  0  0
    6.5194   -1.6158    0.8607 C   0  0  0  0  0  0  0  0  0  0  0  0
    5.9818   -0.4223    0.1488 C   0  0  0  0  0  0  0  0  0  0  0  0
    6.5386    0.8092    0.6610 N   0  0  0  0  0  0  0  0  0  0  0  0
    8.0138    0.8409    0.6841 C   0  0  0  0  0  0  0  0  0  0  0  0
    8.5705   -0.4468    1.3172 C   0  0  0  0  0  0  0  0  0  0  0  0
    7.9620   -1.6491    0.7222 O   0  0  0  0  0  0  0  0  0  0  0  0
    4.2111   -5.5223    0.1673 O   0  0  0  0  0  0  0  0  0  0  0  0
    2.6513   -5.2830   -2.1817 C   0  0  0  0  0  0  0  0  0  0  0  0
    2.9795   -5.0688   -3.6779 C   0  0  0  0  0  0  0  0  0  0  0  0
    2.6653   -3.6481   -4.1560 C   0  0  0  0  0  0  0  0  0  0  0  0
    2.7650   -0.8227   -4.7460 O   0  0  0  0  0  0  0  0  0  0  0  0
    3.6954    3.0688    0.1038 C   0  0  0  0  0  0  0  0  0  0  0  0
    4.2713    4.3289    0.2876 C   0  0  0  0  0  0  0  0  0  0  0  0
    5.6624    4.4272    0.6282 C   0  0  0  0  0  0  0  0  0  0  0  0
    6.3759    3.2320    0.7526 C   0  0  0  0  0  0  0  0  0  0  0  0
    5.7828    1.9818    0.5489 C   0  0  0  0  0  0  0  0  0  0  0  0
    4.4117    1.8850    0.2408 C   0  0  0  0  0  0  0  0  0  0  0  0
    3.5842    0.9054    6.4060 F   0  0  0  0  0  0  0  0  0  0  0  0
  1  2  1  0  0  0  0
  2  3  1  0  0  0  0
  2  5  1  0  0  0  0
  3  4  1  0  0  0  0
  5  6  4  0  0  0  0
  5 10  4  0  0  0  0
  6  7  4  0  0  0  0
  7  8  4  0  0  0  0
  8  9  4  0  0  0  0
  9 10  4  0  0  0  0
 10 11  1  0  0  0  0
 11 12  4  0  0  0  0
 11 15  4  0  0  0  0
 12 13  1  0  0  0  0
 12 68  4  0  0  0  0
 13 14  1  0  0  0  0
 15 16  1  0  0  0  0
 15 67  4  0  0  0  0
 16 17  1  0  0  0  0
 17 18  1  0  0  0  0
 17 19  1  0  0  0  0
 17 20  1  0  0  0  0
 20 21  1  0  0  0  0
 21 22  1  0  0  0  0
 22 23  1  0  0  0  0
 22 66  2  0  0  0  0
 23 24  1  0  0  0  0
 23 65  1  0  0  0  0
 24 25  1  0  0  0  0
 25 26  1  0  0  0  0
 25 63  1  0  0  0  0
 26 27  1  0  0  0  0
 26 62  2  0  0  0  0
 27 28  1  0  0  0  0
 27 55  1  0  0  0  0
 28 29  1  0  0  0  0
 29 30  1  0  0  0  0
 29 54  2  0  0  0  0
 30 31  1  0  0  0  0
 30 34  1  0  0  0  0
 31 32  1  0  0  0  0
 31 33  1  0  0  0  0
 34 35  1  0  0  0  0
 34 53  1  0  0  0  0
 35 36  1  0  0  0  0
 35 52  2  0  0  0  0
 36 37  1  0  0  0  0
 36 51  1  0  0  0  0
 36 73  1  0  0  0  0
 37 38  1  0  0  0  0
 38 39  1  0  0  0  0
 39 40  1  0  0  0  0
 39 50  1  0  0  0  0
 40 41  1  0  0  0  0
 40 49  2  0  0  0  0
 41 42  1  0  0  0  0
 42 43  1  0  0  0  0
 43 44  1  0  0  0  0
 43 47  1  0  0  0  0
 43 48  1  0  0  0  0
 44 45  1  0  0  0  0
 44 46  1  0  0  0  0
 50 51  1  0  0  0  0
 55 56  1  0  0  0  0
 56 57  1  0  0  0  0
 56 61  1  0  0  0  0
 57 58  1  0  0  0  0
 58 59  1  0  0  0  0
 58 71  1  0  0  0  0
 59 60  1  0  0  0  0
 60 61  1  0  0  0  0
 63 64  1  0  0  0  0
 64 65  1  0  0  0  0
 67 68  4  0  0  0  0
 67 72  4  0  0  0  0
 68 69  4  0  0  0  0
 69 70  4  0  0  0  0
 70 71  4  0  0  0  0
 71 72  4  0  0  0  0
M  END
$$$$
