mol_ETKDG4_232
  PyMOL3.1          3D                             0

 73 79  0  0  0  0  0  0  0  0999 V2000
    5.0207   -4.5402    2.6379 C   0  0  0  0  0  0  0  0  0  0  0  0
    3.6416   -4.1631    3.0125 C   0  0  0  0  0  0  0  0  0  0  0  0
    2.6463   -5.0957    2.6575 O   0  0  0  0  0  0  0  0  0  0  0  0
    2.3162   -5.2040    1.2964 C   0  0  0  0  0  0  0  0  0  0  0  0
    3.5085   -3.9197    4.4552 C   0  0  0  0  0  0  0  0  0  0  0  0
    3.5501   -4.9685    5.2592 N   0  0  0  0  0  0  0  0  0  0  0  0
    3.5119   -4.8240    6.6000 C   0  0  0  0  0  0  0  0  0  0  0  0
    3.4307   -3.5640    7.1999 C   0  0  0  0  0  0  0  0  0  0  0  0
    3.3904   -2.4414    6.3679 C   0  0  0  0  0  0  0  0  0  0  0  0
    3.4029   -2.6312    4.9759 C   0  0  0  0  0  0  0  0  0  0  0  0
    3.2941   -1.4679    4.1262 C   0  0  0  0  0  0  0  0  0  0  0  0
    4.3421   -0.6672    3.8022 N   0  0  0  0  0  0  0  0  0  0  0  0
    5.7813   -0.8196    4.2086 C   0  0  0  0  0  0  0  0  0  0  0  0
    6.1756    0.1446    5.2440 C   0  0  0  0  0  0  0  0  0  0  0  0
    2.1101   -1.0348    3.4661 C   0  0  0  0  0  0  0  0  0  0  0  0
    0.7231   -1.6430    3.4174 C   0  0  0  0  0  0  0  0  0  0  0  0
   -0.3019   -1.1475    4.5367 C   0  0  0  0  0  0  0  0  0  0  0  0
    0.2532   -1.2349    5.9389 C   0  0  0  0  0  0  0  0  0  0  0  0
   -1.4822   -2.0881    4.5194 C   0  0  0  0  0  0  0  0  0  0  0  0
   -0.7542    0.2942    4.3123 C   0  0  0  0  0  0  0  0  0  0  0  0
   -1.8256    0.5105    3.2788 O   0  0  0  0  0  0  0  0  0  0  0  0
   -3.0277    1.2570    3.5104 C   0  0  0  0  0  0  0  0  0  0  0  0
   -3.9358    1.5556    2.3332 C   0  0  0  0  0  0  0  0  0  0  0  0
   -3.6203    0.7166    1.2281 N   0  0  0  0  0  0  0  0  0  0  0  0
   -4.3601    0.8903    0.0634 N   0  0  0  0  0  0  0  0  0  0  0  0
   -3.7482    1.1277   -1.1311 C   0  0  0  0  0  0  0  0  0  0  0  0
   -2.2464    1.1824   -1.1834 C   0  0  0  0  0  0  0  0  0  0  0  0
   -1.7722    0.6040   -2.4187 N   0  0  0  0  0  0  0  0  0  0  0  0
   -1.2695   -0.6306   -2.5226 C   0  0  0  0  0  0  0  0  0  0  0  0
   -0.7222   -1.0085   -3.8559 C   0  0  0  0  0  0  0  0  0  0  0  0
   -1.6604   -1.8266   -4.7646 C   0  0  0  0  0  0  0  0  0  0  0  0
   -1.4979   -1.5260   -6.2082 C   0  0  0  0  0  0  0  0  0  0  0  0
   -3.0494   -1.9980   -4.2993 C   0  0  0  0  0  0  0  0  0  0  0  0
    0.5325   -1.7013   -3.6180 N   0  0  0  0  0  0  0  0  0  0  0  0
    1.6457   -0.9447   -3.3592 C   0  0  0  0  0  0  0  0  0  0  0  0
    2.9927   -1.5149   -3.0192 C   0  0  0  0  0  0  0  0  0  0  0  0
    4.1197   -0.4834   -3.1170 C   0  0  0  0  0  0  0  0  0  0  0  0
    5.4137   -1.0640   -2.6454 C   0  0  0  0  0  0  0  0  0  0  0  0
    5.2350   -1.6453   -1.2981 N   0  0  0  0  0  0  0  0  0  0  0  0
    6.0076   -1.2966   -0.2360 C   0  0  0  0  0  0  0  0  0  0  0  0
    6.8670   -0.2312   -0.3218 C   0  0  0  0  0  0  0  0  0  0  0  0
    7.6268    0.6260   -0.3126 C   0  0  0  0  0  0  0  0  0  0  0  0
    8.4764    1.7481   -0.4392 C   0  0  0  0  0  0  0  0  0  0  0  0
    9.2201    1.9457    0.7569 N   0  0  0  0  0  0  0  0  0  0  0  0
    8.6262    2.5807    1.8567 C   0  0  0  0  0  0  0  0  0  0  0  0
   10.4116    1.2239    0.9958 C   0  0  0  0  0  0  0  0  0  0  0  0
    7.6388    2.9770   -0.7659 C   0  0  0  0  0  0  0  0  0  0  0  0
    9.4110    1.5642   -1.6144 C   0  0  0  0  0  0  0  0  0  0  0  0
    5.9132   -1.9087    0.8363 O   0  0  0  0  0  0  0  0  0  0  0  0
    4.1783   -2.5950   -1.1325 C   0  0  0  0  0  0  0  0  0  0  0  0
    2.8944   -1.9970   -1.5756 C   0  0  0  0  0  0  0  0  0  0  0  0
    1.5130    0.2925   -3.3798 O   0  0  0  0  0  0  0  0  0  0  0  0
    0.5347   -3.1779   -3.5410 C   0  0  0  0  0  0  0  0  0  0  0  0
   -1.1649   -1.3401   -1.5255 O   0  0  0  0  0  0  0  0  0  0  0  0
   -1.7571    2.6869   -1.0781 C   0  0  0  0  0  0  0  0  0  0  0  0
   -0.2128    2.8717   -1.1071 C   0  0  0  0  0  0  0  0  0  0  0  0
    0.2921    2.5451    0.2506 C   0  0  0  0  0  0  0  0  0  0  0  0
    1.7097    2.7652    0.3786 N   0  0  0  0  0  0  0  0  0  0  0  0
    2.1731    4.0946   -0.0429 C   0  0  0  0  0  0  0  0  0  0  0  0
    1.5354    4.4984   -1.3835 C   0  0  0  0  0  0  0  0  0  0  0  0
    0.0821    4.2670   -1.3946 O   0  0  0  0  0  0  0  0  0  0  0  0
   -4.4047    1.3290   -2.1696 O   0  0  0  0  0  0  0  0  0  0  0  0
   -5.8092    0.7314    0.2062 C   0  0  0  0  0  0  0  0  0  0  0  0
   -6.2996    1.5839    1.3850 C   0  0  0  0  0  0  0  0  0  0  0  0
   -5.4525    1.3921    2.6528 C   0  0  0  0  0  0  0  0  0  0  0  0
   -3.3826    1.6759    4.6260 O   0  0  0  0  0  0  0  0  0  0  0  0
    2.5337    0.1038    2.7564 C   0  0  0  0  0  0  0  0  0  0  0  0
    3.8942    0.2945    2.9831 C   0  0  0  0  0  0  0  0  0  0  0  0
    4.5707    1.3760    2.3312 C   0  0  0  0  0  0  0  0  0  0  0  0
    3.8128    2.1842    1.4728 C   0  0  0  0  0  0  0  0  0  0  0  0
    2.4483    1.9614    1.2535 C   0  0  0  0  0  0  0  0  0  0  0  0
    1.7921    0.9084    1.9078 C   0  0  0  0  0  0  0  0  0  0  0  0
    3.3224   -2.5433   -3.8701 F   0  0  0  0  0  0  0  0  0  0  0  0
  1  2  1  0  0  0  0
  2  3  1  0  0  0  0
  2  5  1  0  0  0  0
  3  4  1  0  0  0  0
  5  6  4  0  0  0  0
  5 10  4  0  0  0  0
  6  7  4  0  0  0  0
  7  8  4  0  0  0  0
  8  9  4  0  0  0  0
  9 10  4  0  0  0  0
 10 11  1  0  0  0  0
 11 12  4  0  0  0  0
 11 15  4  0  0  0  0
 12 13  1  0  0  0  0
 12 68  4  0  0  0  0
 13 14  1  0  0  0  0
 15 16  1  0  0  0  0
 15 67  4  0  0  0  0
 16 17  1  0  0  0  0
 17 18  1  0  0  0  0
 17 19  1  0  0  0  0
 17 20  1  0  0  0  0
 20 21  1  0  0  0  0
 21 22  1  0  0  0  0
 22 23  1  0  0  0  0
 22 66  2  0  0  0  0
 23 24  1  0  0  0  0
 23 65  1  0  0  0  0
 24 25  1  0  0  0  0
 25 26  1  0  0  0  0
 25 63  1  0  0  0  0
 26 27  1  0  0  0  0
 26 62  2  0  0  0  0
 27 28  1  0  0  0  0
 27 55  1  0  0  0  0
 28 29  1  0  0  0  0
 29 30  1  0  0  0  0
 29 54  2  0  0  0  0
 30 31  1  0  0  0  0
 30 34  1  0  0  0  0
 31 32  1  0  0  0  0
 31 33  1  0  0  0  0
 34 35  1  0  0  0  0
 34 53  1  0  0  0  0
 35 36  1  0  0  0  0
 35 52  2  0  0  0  0
 36 37  1  0  0  0  0
 36 51  1  0  0  0  0
 36 73  1  0  0  0  0
 37 38  1  0  0  0  0
 38 39  1  0  0  0  0
 39 40  1  0  0  0  0
 39 50  1  0  0  0  0
 40 41  1  0  0  0  0
 40 49  2  0  0  0  0
 41 42  1  0  0  0  0
 42 43  1  0  0  0  0
 43 44  1  0  0  0  0
 43 47  1  0  0  0  0
 43 48  1  0  0  0  0
 44 45  1  0  0  0  0
 44 46  1  0  0  0  0
 50 51  1  0  0  0  0
 55 56  1  0  0  0  0
 56 57  1  0  0  0  0
 56 61  1  0  0  0  0
 57 58  1  0  0  0  0
 58 59  1  0  0  0  0
 58 71  1  0  0  0  0
 59 60  1  0  0  0  0
 60 61  1  0  0  0  0
 63 64  1  0  0  0  0
 64 65  1  0  0  0  0
 67 68  4  0  0  0  0
 67 72  4  0  0  0  0
 68 69  4  0  0  0  0
 69 70  4  0  0  0  0
 70 71  4  0  0  0  0
 71 72  4  0  0  0  0
M  END
$$$$
