mol_ETKDG2_136
  PyMOL3.1          3D                             0

 73 79  0  0  0  0  0  0  0  0999 V2000
    6.2822   -2.3080   -3.9776 C   0  0  0  0  0  0  0  0  0  0  0  0
    5.8179   -2.6557   -2.6175 C   0  0  0  0  0  0  0  0  0  0  0  0
    6.5173   -2.0647   -1.5547 O   0  0  0  0  0  0  0  0  0  0  0  0
    6.3892   -0.6652   -1.3966 C   0  0  0  0  0  0  0  0  0  0  0  0
    5.7845   -4.1158   -2.3781 C   0  0  0  0  0  0  0  0  0  0  0  0
    6.9385   -4.7519   -2.2520 N   0  0  0  0  0  0  0  0  0  0  0  0
    6.9882   -6.0897   -2.1064 C   0  0  0  0  0  0  0  0  0  0  0  0
    5.8281   -6.8665   -2.0925 C   0  0  0  0  0  0  0  0  0  0  0  0
    4.5974   -6.2177   -2.2261 C   0  0  0  0  0  0  0  0  0  0  0  0
    4.5887   -4.8203   -2.3415 C   0  0  0  0  0  0  0  0  0  0  0  0
    3.3090   -4.1549   -2.4138 C   0  0  0  0  0  0  0  0  0  0  0  0
    2.6228   -3.9779   -3.5712 N   0  0  0  0  0  0  0  0  0  0  0  0
    3.0509   -4.3497   -4.9621 C   0  0  0  0  0  0  0  0  0  0  0  0
    2.3258   -5.4791   -5.5250 C   0  0  0  0  0  0  0  0  0  0  0  0
    2.6316   -3.5411   -1.3289 C   0  0  0  0  0  0  0  0  0  0  0  0
    3.0391   -3.3330    0.1125 C   0  0  0  0  0  0  0  0  0  0  0  0
    2.7063   -4.4904    1.1511 C   0  0  0  0  0  0  0  0  0  0  0  0
    3.0815   -3.9820    2.5292 C   0  0  0  0  0  0  0  0  0  0  0  0
    3.5744   -5.6825    0.9556 C   0  0  0  0  0  0  0  0  0  0  0  0
    1.2466   -4.9089    1.1613 C   0  0  0  0  0  0  0  0  0  0  0  0
    0.3540   -4.1103    2.0736 O   0  0  0  0  0  0  0  0  0  0  0  0
   -0.7425   -4.6315    2.8168 C   0  0  0  0  0  0  0  0  0  0  0  0
   -1.5584   -3.6861    3.6889 C   0  0  0  0  0  0  0  0  0  0  0  0
   -0.8705   -2.4436    3.8476 N   0  0  0  0  0  0  0  0  0  0  0  0
   -1.4387   -1.4693    4.6610 N   0  0  0  0  0  0  0  0  0  0  0  0
   -1.6471   -0.2007    4.1927 C   0  0  0  0  0  0  0  0  0  0  0  0
   -1.3175    0.0941    2.7644 C   0  0  0  0  0  0  0  0  0  0  0  0
   -0.7749    1.4274    2.5797 N   0  0  0  0  0  0  0  0  0  0  0  0
    0.5291    1.6739    2.3686 C   0  0  0  0  0  0  0  0  0  0  0  0
    0.9032    3.0789    2.0361 C   0  0  0  0  0  0  0  0  0  0  0  0
    1.4937    3.9042    3.2182 C   0  0  0  0  0  0  0  0  0  0  0  0
    1.4675    5.3752    2.9641 C   0  0  0  0  0  0  0  0  0  0  0  0
    0.9620    3.5244    4.5558 C   0  0  0  0  0  0  0  0  0  0  0  0
    1.8114    3.0048    0.8871 N   0  0  0  0  0  0  0  0  0  0  0  0
    1.2629    2.9031   -0.3732 C   0  0  0  0  0  0  0  0  0  0  0  0
    2.0484    2.6948   -1.6490 C   0  0  0  0  0  0  0  0  0  0  0  0
    2.3951    1.2242   -1.7094 C   0  0  0  0  0  0  0  0  0  0  0  0
    3.1776    0.9065   -2.9372 C   0  0  0  0  0  0  0  0  0  0  0  0
    2.4077    1.2939   -4.1139 N   0  0  0  0  0  0  0  0  0  0  0  0
    2.1776    0.3485   -5.0912 C   0  0  0  0  0  0  0  0  0  0  0  0
    1.0657    0.3196   -5.9338 C   0  0  0  0  0  0  0  0  0  0  0  0
    0.2222    0.1453   -6.7311 C   0  0  0  0  0  0  0  0  0  0  0  0
   -0.8528    0.0530   -7.6353 C   0  0  0  0  0  0  0  0  0  0  0  0
   -0.5071    0.6962   -8.8658 N   0  0  0  0  0  0  0  0  0  0  0  0
   -0.5687    2.0956   -8.9752 C   0  0  0  0  0  0  0  0  0  0  0  0
    0.2059   -0.0077   -9.8673 C   0  0  0  0  0  0  0  0  0  0  0  0
   -2.0899    0.6848   -7.0107 C   0  0  0  0  0  0  0  0  0  0  0  0
   -1.2155   -1.3950   -7.9035 C   0  0  0  0  0  0  0  0  0  0  0  0
    2.9697   -0.5803   -5.2093 O   0  0  0  0  0  0  0  0  0  0  0  0
    1.9419    2.6644   -4.1503 C   0  0  0  0  0  0  0  0  0  0  0  0
    1.2371    3.0646   -2.9006 C   0  0  0  0  0  0  0  0  0  0  0  0
    0.0235    2.9410   -0.4605 O   0  0  0  0  0  0  0  0  0  0  0  0
    3.2611    2.9047    1.1286 C   0  0  0  0  0  0  0  0  0  0  0  0
    1.3271    0.7521    2.3259 O   0  0  0  0  0  0  0  0  0  0  0  0
   -2.6221   -0.0692    1.8942 C   0  0  0  0  0  0  0  0  0  0  0  0
   -2.4161    0.1071    0.3727 C   0  0  0  0  0  0  0  0  0  0  0  0
   -1.7847   -1.1334   -0.1340 C   0  0  0  0  0  0  0  0  0  0  0  0
   -1.6546   -1.1355   -1.5641 N   0  0  0  0  0  0  0  0  0  0  0  0
   -2.8798   -0.8154   -2.3057 C   0  0  0  0  0  0  0  0  0  0  0  0
   -3.5849    0.4088   -1.6988 C   0  0  0  0  0  0  0  0  0  0  0  0
   -3.7155    0.2847   -0.2419 O   0  0  0  0  0  0  0  0  0  0  0  0
   -2.1461    0.6842    4.9031 O   0  0  0  0  0  0  0  0  0  0  0  0
   -1.7268   -1.8749    6.0404 C   0  0  0  0  0  0  0  0  0  0  0  0
   -2.5099   -3.2026    6.0185 C   0  0  0  0  0  0  0  0  0  0  0  0
   -1.8549   -4.2642    5.1117 C   0  0  0  0  0  0  0  0  0  0  0  0
   -1.0813   -5.8301    2.7925 O   0  0  0  0  0  0  0  0  0  0  0  0
    1.4619   -3.0342   -1.9178 C   0  0  0  0  0  0  0  0  0  0  0  0
    1.4925   -3.3187   -3.2832 C   0  0  0  0  0  0  0  0  0  0  0  0
    0.4174   -2.8750   -4.1127 C   0  0  0  0  0  0  0  0  0  0  0  0
   -0.6043   -2.1423   -3.5038 C   0  0  0  0  0  0  0  0  0  0  0  0
   -0.6148   -1.8668   -2.1381 C   0  0  0  0  0  0  0  0  0  0  0  0
    0.4380   -2.3173   -1.3174 C   0  0  0  0  0  0  0  0  0  0  0  0
    3.1792    3.4908   -1.6773 F   0  0  0  0  0  0  0  0  0  0  0  0
  1  2  1  0  0  0  0
  2  3  1  0  0  0  0
  2  5  1  0  0  0  0
  3  4  1  0  0  0  0
  5  6  4  0  0  0  0
  5 10  4  0  0  0  0
  6  7  4  0  0  0  0
  7  8  4  0  0  0  0
  8  9  4  0  0  0  0
  9 10  4  0  0  0  0
 10 11  1  0  0  0  0
 11 12  4  0  0  0  0
 11 15  4  0  0  0  0
 12 13  1  0  0  0  0
 12 68  4  0  0  0  0
 13 14  1  0  0  0  0
 15 16  1  0  0  0  0
 15 67  4  0  0  0  0
 16 17  1  0  0  0  0
 17 18  1  0  0  0  0
 17 19  1  0  0  0  0
 17 20  1  0  0  0  0
 20 21  1  0  0  0  0
 21 22  1  0  0  0  0
 22 23  1  0  0  0  0
 22 66  2  0  0  0  0
 23 24  1  0  0  0  0
 23 65  1  0  0  0  0
 24 25  1  0  0  0  0
 25 26  1  0  0  0  0
 25 63  1  0  0  0  0
 26 27  1  0  0  0  0
 26 62  2  0  0  0  0
 27 28  1  0  0  0  0
 27 55  1  0  0  0  0
 28 29  1  0  0  0  0
 29 30  1  0  0  0  0
 29 54  2  0  0  0  0
 30 31  1  0  0  0  0
 30 34  1  0  0  0  0
 31 32  1  0  0  0  0
 31 33  1  0  0  0  0
 34 35  1  0  0  0  0
 34 53  1  0  0  0  0
 35 36  1  0  0  0  0
 35 52  2  0  0  0  0
 36 37  1  0  0  0  0
 36 51  1  0  0  0  0
 36 73  1  0  0  0  0
 37 38  1  0  0  0  0
 38 39  1  0  0  0  0
 39 40  1  0  0  0  0
 39 50  1  0  0  0  0
 40 41  1  0  0  0  0
 40 49  2  0  0  0  0
 41 42  1  0  0  0  0
 42 43  1  0  0  0  0
 43 44  1  0  0  0  0
 43 47  1  0  0  0  0
 43 48  1  0  0  0  0
 44 45  1  0  0  0  0
 44 46  1  0  0  0  0
 50 51  1  0  0  0  0
 55 56  1  0  0  0  0
 56 57  1  0  0  0  0
 56 61  1  0  0  0  0
 57 58  1  0  0  0  0
 58 59  1  0  0  0  0
 58 71  1  0  0  0  0
 59 60  1  0  0  0  0
 60 61  1  0  0  0  0
 63 64  1  0  0  0  0
 64 65  1  0  0  0  0
 67 68  4  0  0  0  0
 67 72  4  0  0  0  0
 68 69  4  0  0  0  0
 69 70  4  0  0  0  0
 70 71  4  0  0  0  0
 71 72  4  0  0  0  0
M  END
$$$$
