mol_ETKDG2_116
  PyMOL3.1          3D                             0

 73 79  0  0  0  0  0  0  0  0999 V2000
   -3.2371   -6.6553    5.2534 C   0  0  0  0  0  0  0  0  0  0  0  0
   -3.1560   -6.1897    3.8401 C   0  0  0  0  0  0  0  0  0  0  0  0
   -3.0359   -7.2340    2.9000 O   0  0  0  0  0  0  0  0  0  0  0  0
   -1.8435   -7.9963    2.8902 C   0  0  0  0  0  0  0  0  0  0  0  0
   -4.2915   -5.2993    3.4228 C   0  0  0  0  0  0  0  0  0  0  0  0
   -5.4675   -5.8569    3.1897 N   0  0  0  0  0  0  0  0  0  0  0  0
   -6.5531   -5.1119    2.8503 C   0  0  0  0  0  0  0  0  0  0  0  0
   -6.4858   -3.7179    2.7428 C   0  0  0  0  0  0  0  0  0  0  0  0
   -5.2513   -3.1111    2.9871 C   0  0  0  0  0  0  0  0  0  0  0  0
   -4.1492   -3.9166    3.3145 C   0  0  0  0  0  0  0  0  0  0  0  0
   -2.8655   -3.2935    3.5432 C   0  0  0  0  0  0  0  0  0  0  0  0
   -2.3873   -3.0400    4.7775 N   0  0  0  0  0  0  0  0  0  0  0  0
   -3.1271   -3.3156    6.0394 C   0  0  0  0  0  0  0  0  0  0  0  0
   -2.8906   -2.7130    7.2411 C   0  0  0  0  0  0  0  0  0  0  0  0
   -1.9270   -2.8783    2.5497 C   0  0  0  0  0  0  0  0  0  0  0  0
   -1.9986   -2.8028    1.0696 C   0  0  0  0  0  0  0  0  0  0  0  0
   -1.6645   -4.0500    0.1897 C   0  0  0  0  0  0  0  0  0  0  0  0
   -2.8775   -4.9643    0.0695 C   0  0  0  0  0  0  0  0  0  0  0  0
   -1.4161   -3.5313   -1.1974 C   0  0  0  0  0  0  0  0  0  0  0  0
   -0.4584   -4.8549    0.6495 C   0  0  0  0  0  0  0  0  0  0  0  0
    0.8583   -4.5113   -0.0153 O   0  0  0  0  0  0  0  0  0  0  0  0
    1.9238   -5.4277   -0.2535 C   0  0  0  0  0  0  0  0  0  0  0  0
    3.1761   -4.9306   -0.9730 C   0  0  0  0  0  0  0  0  0  0  0  0
    2.8861   -3.7042   -1.6508 N   0  0  0  0  0  0  0  0  0  0  0  0
    3.8718   -3.1030   -2.4206 N   0  0  0  0  0  0  0  0  0  0  0  0
    4.1978   -1.7736   -2.2340 C   0  0  0  0  0  0  0  0  0  0  0  0
    3.5360   -1.0403   -1.0959 C   0  0  0  0  0  0  0  0  0  0  0  0
    3.1584    0.3207   -1.4185 N   0  0  0  0  0  0  0  0  0  0  0  0
    1.8769    0.7262   -1.5589 C   0  0  0  0  0  0  0  0  0  0  0  0
    1.6627    2.2043   -1.6472 C   0  0  0  0  0  0  0  0  0  0  0  0
    1.5603    2.7721   -3.0790 C   0  0  0  0  0  0  0  0  0  0  0  0
    1.4299    1.8107   -4.1811 C   0  0  0  0  0  0  0  0  0  0  0  0
    2.5116    3.9159   -3.3231 C   0  0  0  0  0  0  0  0  0  0  0  0
    0.4886    2.5329   -0.8074 N   0  0  0  0  0  0  0  0  0  0  0  0
    0.6430    2.5767    0.5683 C   0  0  0  0  0  0  0  0  0  0  0  0
   -0.4835    2.7600    1.5699 C   0  0  0  0  0  0  0  0  0  0  0  0
   -1.2118    1.4390    1.6380 C   0  0  0  0  0  0  0  0  0  0  0  0
   -2.3298    1.4590    2.5984 C   0  0  0  0  0  0  0  0  0  0  0  0
   -1.9039    1.9223    3.9220 N   0  0  0  0  0  0  0  0  0  0  0  0
   -2.3009    1.2381    5.0536 C   0  0  0  0  0  0  0  0  0  0  0  0
   -1.8930    1.6215    6.3222 C   0  0  0  0  0  0  0  0  0  0  0  0
   -1.7457    1.8858    7.4467 C   0  0  0  0  0  0  0  0  0  0  0  0
   -1.5153    2.4663    8.6991 C   0  0  0  0  0  0  0  0  0  0  0  0
   -2.5045    3.4928    8.9171 N   0  0  0  0  0  0  0  0  0  0  0  0
   -2.2442    4.6358    9.6732 C   0  0  0  0  0  0  0  0  0  0  0  0
   -3.8648    3.2125    8.6182 C   0  0  0  0  0  0  0  0  0  0  0  0
   -1.5992    1.4355    9.8208 C   0  0  0  0  0  0  0  0  0  0  0  0
   -0.1137    3.0345    8.7272 C   0  0  0  0  0  0  0  0  0  0  0  0
   -3.0509    0.2691    4.9694 O   0  0  0  0  0  0  0  0  0  0  0  0
   -1.0798    3.1038    3.9620 C   0  0  0  0  0  0  0  0  0  0  0  0
    0.0173    3.1144    2.9842 C   0  0  0  0  0  0  0  0  0  0  0  0
    1.7951    2.4013    1.0112 O   0  0  0  0  0  0  0  0  0  0  0  0
   -0.8271    2.6958   -1.4445 C   0  0  0  0  0  0  0  0  0  0  0  0
    0.9506   -0.0646   -1.4746 O   0  0  0  0  0  0  0  0  0  0  0  0
    4.5262   -1.0192    0.1399 C   0  0  0  0  0  0  0  0  0  0  0  0
    3.9503   -0.3677    1.4272 C   0  0  0  0  0  0  0  0  0  0  0  0
    3.0260   -1.3433    2.0483 C   0  0  0  0  0  0  0  0  0  0  0  0
    2.5107   -0.8809    3.3173 N   0  0  0  0  0  0  0  0  0  0  0  0
    3.5375   -0.4333    4.2741 C   0  0  0  0  0  0  0  0  0  0  0  0
    4.5553    0.4991    3.5906 C   0  0  0  0  0  0  0  0  0  0  0  0
    5.0503   -0.0633    2.3281 O   0  0  0  0  0  0  0  0  0  0  0  0
    5.0571   -1.2045   -2.9115 O   0  0  0  0  0  0  0  0  0  0  0  0
    4.4729   -3.9498   -3.4613 C   0  0  0  0  0  0  0  0  0  0  0  0
    4.8515   -5.3264   -2.8666 C   0  0  0  0  0  0  0  0  0  0  0  0
    3.7338   -5.9415   -2.0195 C   0  0  0  0  0  0  0  0  0  0  0  0
    1.8973   -6.6161    0.1024 O   0  0  0  0  0  0  0  0  0  0  0  0
   -0.8416   -2.3884    3.2875 C   0  0  0  0  0  0  0  0  0  0  0  0
   -1.1612   -2.4791    4.6385 C   0  0  0  0  0  0  0  0  0  0  0  0
   -0.2221   -1.9833    5.5935 C   0  0  0  0  0  0  0  0  0  0  0  0
    0.9734   -1.4461    5.1223 C   0  0  0  0  0  0  0  0  0  0  0  0
    1.2832   -1.3930    3.7613 C   0  0  0  0  0  0  0  0  0  0  0  0
    0.3518   -1.8545    2.8126 C   0  0  0  0  0  0  0  0  0  0  0  0
   -1.3214    3.8016    1.2035 F   0  0  0  0  0  0  0  0  0  0  0  0
  1  2  1  0  0  0  0
  2  3  1  0  0  0  0
  2  5  1  0  0  0  0
  3  4  1  0  0  0  0
  5  6  4  0  0  0  0
  5 10  4  0  0  0  0
  6  7  4  0  0  0  0
  7  8  4  0  0  0  0
  8  9  4  0  0  0  0
  9 10  4  0  0  0  0
 10 11  1  0  0  0  0
 11 12  4  0  0  0  0
 11 15  4  0  0  0  0
 12 13  1  0  0  0  0
 12 68  4  0  0  0  0
 13 14  1  0  0  0  0
 15 16  1  0  0  0  0
 15 67  4  0  0  0  0
 16 17  1  0  0  0  0
 17 18  1  0  0  0  0
 17 19  1  0  0  0  0
 17 20  1  0  0  0  0
 20 21  1  0  0  0  0
 21 22  1  0  0  0  0
 22 23  1  0  0  0  0
 22 66  2  0  0  0  0
 23 24  1  0  0  0  0
 23 65  1  0  0  0  0
 24 25  1  0  0  0  0
 25 26  1  0  0  0  0
 25 63  1  0  0  0  0
 26 27  1  0  0  0  0
 26 62  2  0  0  0  0
 27 28  1  0  0  0  0
 27 55  1  0  0  0  0
 28 29  1  0  0  0  0
 29 30  1  0  0  0  0
 29 54  2  0  0  0  0
 30 31  1  0  0  0  0
 30 34  1  0  0  0  0
 31 32  1  0  0  0  0
 31 33  1  0  0  0  0
 34 35  1  0  0  0  0
 34 53  1  0  0  0  0
 35 36  1  0  0  0  0
 35 52  2  0  0  0  0
 36 37  1  0  0  0  0
 36 51  1  0  0  0  0
 36 73  1  0  0  0  0
 37 38  1  0  0  0  0
 38 39  1  0  0  0  0
 39 40  1  0  0  0  0
 39 50  1  0  0  0  0
 40 41  1  0  0  0  0
 40 49  2  0  0  0  0
 41 42  1  0  0  0  0
 42 43  1  0  0  0  0
 43 44  1  0  0  0  0
 43 47  1  0  0  0  0
 43 48  1  0  0  0  0
 44 45  1  0  0  0  0
 44 46  1  0  0  0  0
 50 51  1  0  0  0  0
 55 56  1  0  0  0  0
 56 57  1  0  0  0  0
 56 61  1  0  0  0  0
 57 58  1  0  0  0  0
 58 59  1  0  0  0  0
 58 71  1  0  0  0  0
 59 60  1  0  0  0  0
 60 61  1  0  0  0  0
 63 64  1  0  0  0  0
 64 65  1  0  0  0  0
 67 68  4  0  0  0  0
 67 72  4  0  0  0  0
 68 69  4  0  0  0  0
 69 70  4  0  0  0  0
 70 71  4  0  0  0  0
 71 72  4  0  0  0  0
M  END
$$$$
