mol_ETKDG1_83
  PyMOL3.1          3D                             0

 73 79  0  0  0  0  0  0  0  0999 V2000
    5.3820   -4.5143   -1.2335 C   0  0  0  0  0  0  0  0  0  0  0  0
    5.4887   -3.4252   -0.2415 C   0  0  0  0  0  0  0  0  0  0  0  0
    5.5218   -3.8147    1.1077 O   0  0  0  0  0  0  0  0  0  0  0  0
    4.3419   -4.2869    1.6885 C   0  0  0  0  0  0  0  0  0  0  0  0
    6.6475   -2.5466   -0.4689 C   0  0  0  0  0  0  0  0  0  0  0  0
    7.8481   -3.0113   -0.1562 N   0  0  0  0  0  0  0  0  0  0  0  0
    8.9616   -2.2834   -0.3781 C   0  0  0  0  0  0  0  0  0  0  0  0
    8.9013   -1.0123   -0.9581 C   0  0  0  0  0  0  0  0  0  0  0  0
    7.6415   -0.5053   -1.3032 C   0  0  0  0  0  0  0  0  0  0  0  0
    6.5059   -1.2836   -1.0254 C   0  0  0  0  0  0  0  0  0  0  0  0
    5.2124   -0.7350   -1.3542 C   0  0  0  0  0  0  0  0  0  0  0  0
    4.6705   -0.8452   -2.5904 N   0  0  0  0  0  0  0  0  0  0  0  0
    5.2441   -1.5473   -3.7937 C   0  0  0  0  0  0  0  0  0  0  0  0
    5.7755   -0.6219   -4.8031 C   0  0  0  0  0  0  0  0  0  0  0  0
    4.3080   -0.0854   -0.4620 C   0  0  0  0  0  0  0  0  0  0  0  0
    4.3564    0.1313    1.0262 C   0  0  0  0  0  0  0  0  0  0  0  0
    5.0438    1.4625    1.5560 C   0  0  0  0  0  0  0  0  0  0  0  0
    6.5403    1.4659    1.3057 C   0  0  0  0  0  0  0  0  0  0  0  0
    4.9010    1.4735    3.0554 C   0  0  0  0  0  0  0  0  0  0  0  0
    4.4319    2.7290    0.9569 C   0  0  0  0  0  0  0  0  0  0  0  0
    3.2284    3.2855    1.6883 O   0  0  0  0  0  0  0  0  0  0  0  0
    3.0794    4.6591    2.0793 C   0  0  0  0  0  0  0  0  0  0  0  0
    1.7871    5.1055    2.7631 C   0  0  0  0  0  0  0  0  0  0  0  0
    1.1341    3.9873    3.3767 N   0  0  0  0  0  0  0  0  0  0  0  0
   -0.0465    4.2259    4.0827 N   0  0  0  0  0  0  0  0  0  0  0  0
   -1.1947    3.5315    3.8045 C   0  0  0  0  0  0  0  0  0  0  0  0
   -1.1870    2.5268    2.6876 C   0  0  0  0  0  0  0  0  0  0  0  0
   -1.9803    1.3547    3.0025 N   0  0  0  0  0  0  0  0  0  0  0  0
   -1.4301    0.1712    3.3681 C   0  0  0  0  0  0  0  0  0  0  0  0
   -2.3744   -0.9835    3.4799 C   0  0  0  0  0  0  0  0  0  0  0  0
   -2.8239   -1.3511    4.9240 C   0  0  0  0  0  0  0  0  0  0  0  0
   -4.0249   -2.2372    4.9554 C   0  0  0  0  0  0  0  0  0  0  0  0
   -2.9121   -0.1949    5.8582 C   0  0  0  0  0  0  0  0  0  0  0  0
   -1.7451   -2.1188    2.8045 N   0  0  0  0  0  0  0  0  0  0  0  0
   -1.8359   -2.1909    1.4325 C   0  0  0  0  0  0  0  0  0  0  0  0
   -1.2102   -3.2693    0.5759 C   0  0  0  0  0  0  0  0  0  0  0  0
   -1.8455   -3.3477   -0.8192 C   0  0  0  0  0  0  0  0  0  0  0  0
   -1.1216   -4.3313   -1.6890 C   0  0  0  0  0  0  0  0  0  0  0  0
    0.3186   -4.0272   -1.6919 N   0  0  0  0  0  0  0  0  0  0  0  0
    1.0288   -3.7895   -2.8374 C   0  0  0  0  0  0  0  0  0  0  0  0
    0.3873   -3.4460   -4.0066 C   0  0  0  0  0  0  0  0  0  0  0  0
   -0.0822   -3.1836   -5.0274 C   0  0  0  0  0  0  0  0  0  0  0  0
   -0.8386   -2.8581   -6.1716 C   0  0  0  0  0  0  0  0  0  0  0  0
   -0.2032   -3.3121   -7.3556 N   0  0  0  0  0  0  0  0  0  0  0  0
    0.0609   -4.6848   -7.5233 C   0  0  0  0  0  0  0  0  0  0  0  0
    0.2046   -2.4445   -8.3821 C   0  0  0  0  0  0  0  0  0  0  0  0
   -2.2297   -3.5006   -6.0684 C   0  0  0  0  0  0  0  0  0  0  0  0
   -1.0602   -1.3652   -6.1948 C   0  0  0  0  0  0  0  0  0  0  0  0
    2.2726   -3.8135   -2.8225 O   0  0  0  0  0  0  0  0  0  0  0  0
    0.9659   -3.9335   -0.4141 C   0  0  0  0  0  0  0  0  0  0  0  0
    0.2651   -2.9083    0.4284 C   0  0  0  0  0  0  0  0  0  0  0  0
   -2.4668   -1.2860    0.8549 O   0  0  0  0  0  0  0  0  0  0  0  0
   -0.9325   -3.0609    3.5975 C   0  0  0  0  0  0  0  0  0  0  0  0
   -0.2223    0.0542    3.4685 O   0  0  0  0  0  0  0  0  0  0  0  0
   -1.7440    3.2059    1.3767 C   0  0  0  0  0  0  0  0  0  0  0  0
   -1.6948    2.3194    0.1082 C   0  0  0  0  0  0  0  0  0  0  0  0
   -0.2903    2.3246   -0.3915 C   0  0  0  0  0  0  0  0  0  0  0  0
   -0.1617    1.6141   -1.6344 N   0  0  0  0  0  0  0  0  0  0  0  0
   -1.1044    2.0325   -2.6899 C   0  0  0  0  0  0  0  0  0  0  0  0
   -2.5318    2.1408   -2.1282 C   0  0  0  0  0  0  0  0  0  0  0  0
   -2.5553    2.9311   -0.8894 O   0  0  0  0  0  0  0  0  0  0  0  0
   -2.2537    3.7468    4.4197 O   0  0  0  0  0  0  0  0  0  0  0  0
    0.0484    5.2070    5.1637 C   0  0  0  0  0  0  0  0  0  0  0  0
    0.7270    6.4873    4.6327 C   0  0  0  0  0  0  0  0  0  0  0  0
    2.0155    6.1962    3.8571 C   0  0  0  0  0  0  0  0  0  0  0  0
    3.9551    5.5247    1.8901 O   0  0  0  0  0  0  0  0  0  0  0  0
    3.2171    0.2349   -1.2822 C   0  0  0  0  0  0  0  0  0  0  0  0
    3.4717   -0.2577   -2.5633 C   0  0  0  0  0  0  0  0  0  0  0  0
    2.4806   -0.1084   -3.5873 C   0  0  0  0  0  0  0  0  0  0  0  0
    1.2862    0.5146   -3.2348 C   0  0  0  0  0  0  0  0  0  0  0  0
    1.0514    0.9990   -1.9451 C   0  0  0  0  0  0  0  0  0  0  0  0
    2.0266    0.8595   -0.9477 C   0  0  0  0  0  0  0  0  0  0  0  0
   -1.3603   -4.5168    1.1546 F   0  0  0  0  0  0  0  0  0  0  0  0
  1  2  1  0  0  0  0
  2  3  1  0  0  0  0
  2  5  1  0  0  0  0
  3  4  1  0  0  0  0
  5  6  4  0  0  0  0
  5 10  4  0  0  0  0
  6  7  4  0  0  0  0
  7  8  4  0  0  0  0
  8  9  4  0  0  0  0
  9 10  4  0  0  0  0
 10 11  1  0  0  0  0
 11 12  4  0  0  0  0
 11 15  4  0  0  0  0
 12 13  1  0  0  0  0
 12 68  4  0  0  0  0
 13 14  1  0  0  0  0
 15 16  1  0  0  0  0
 15 67  4  0  0  0  0
 16 17  1  0  0  0  0
 17 18  1  0  0  0  0
 17 19  1  0  0  0  0
 17 20  1  0  0  0  0
 20 21  1  0  0  0  0
 21 22  1  0  0  0  0
 22 23  1  0  0  0  0
 22 66  2  0  0  0  0
 23 24  1  0  0  0  0
 23 65  1  0  0  0  0
 24 25  1  0  0  0  0
 25 26  1  0  0  0  0
 25 63  1  0  0  0  0
 26 27  1  0  0  0  0
 26 62  2  0  0  0  0
 27 28  1  0  0  0  0
 27 55  1  0  0  0  0
 28 29  1  0  0  0  0
 29 30  1  0  0  0  0
 29 54  2  0  0  0  0
 30 31  1  0  0  0  0
 30 34  1  0  0  0  0
 31 32  1  0  0  0  0
 31 33  1  0  0  0  0
 34 35  1  0  0  0  0
 34 53  1  0  0  0  0
 35 36  1  0  0  0  0
 35 52  2  0  0  0  0
 36 37  1  0  0  0  0
 36 51  1  0  0  0  0
 36 73  1  0  0  0  0
 37 38  1  0  0  0  0
 38 39  1  0  0  0  0
 39 40  1  0  0  0  0
 39 50  1  0  0  0  0
 40 41  1  0  0  0  0
 40 49  2  0  0  0  0
 41 42  1  0  0  0  0
 42 43  1  0  0  0  0
 43 44  1  0  0  0  0
 43 47  1  0  0  0  0
 43 48  1  0  0  0  0
 44 45  1  0  0  0  0
 44 46  1  0  0  0  0
 50 51  1  0  0  0  0
 55 56  1  0  0  0  0
 56 57  1  0  0  0  0
 56 61  1  0  0  0  0
 57 58  1  0  0  0  0
 58 59  1  0  0  0  0
 58 71  1  0  0  0  0
 59 60  1  0  0  0  0
 60 61  1  0  0  0  0
 63 64  1  0  0  0  0
 64 65  1  0  0  0  0
 67 68  4  0  0  0  0
 67 72  4  0  0  0  0
 68 69  4  0  0  0  0
 69 70  4  0  0  0  0
 70 71  4  0  0  0  0
 71 72  4  0  0  0  0
M  END
$$$$
