mol_ETKDG4_246
  PyMOL3.1          3D                             0

 73 79  0  0  0  0  0  0  0  0999 V2000
   -0.5888    0.9318    6.9691 C   0  0  0  0  0  0  0  0  0  0  0  0
   -1.1494    0.3938    5.7066 C   0  0  0  0  0  0  0  0  0  0  0  0
   -2.3758    0.9840    5.3081 O   0  0  0  0  0  0  0  0  0  0  0  0
   -2.2988    2.2359    4.6766 C   0  0  0  0  0  0  0  0  0  0  0  0
   -1.4033   -1.0572    5.7896 C   0  0  0  0  0  0  0  0  0  0  0  0
   -2.4154   -1.4549    6.5380 N   0  0  0  0  0  0  0  0  0  0  0  0
   -2.6775   -2.7597    6.7132 C   0  0  0  0  0  0  0  0  0  0  0  0
   -1.8902   -3.7483    6.1243 C   0  0  0  0  0  0  0  0  0  0  0  0
   -0.8035   -3.3491    5.3391 C   0  0  0  0  0  0  0  0  0  0  0  0
   -0.5859   -1.9859    5.1537 C   0  0  0  0  0  0  0  0  0  0  0  0
    0.4974   -1.5939    4.2922 C   0  0  0  0  0  0  0  0  0  0  0  0
    1.7928   -1.5377    4.6856 N   0  0  0  0  0  0  0  0  0  0  0  0
    2.3468   -1.7974    6.0521 C   0  0  0  0  0  0  0  0  0  0  0  0
    3.0880   -3.0549    6.1349 C   0  0  0  0  0  0  0  0  0  0  0  0
    0.3659   -1.1672    2.9465 C   0  0  0  0  0  0  0  0  0  0  0  0
   -0.8486   -0.9445    2.0842 C   0  0  0  0  0  0  0  0  0  0  0  0
   -1.3439   -2.2279    1.2910 C   0  0  0  0  0  0  0  0  0  0  0  0
   -2.4713   -1.7806    0.3844 C   0  0  0  0  0  0  0  0  0  0  0  0
   -1.9654   -3.2253    2.2007 C   0  0  0  0  0  0  0  0  0  0  0  0
   -0.2325   -2.8967    0.4743 C   0  0  0  0  0  0  0  0  0  0  0  0
   -0.0347   -2.3526   -0.9027 O   0  0  0  0  0  0  0  0  0  0  0  0
   -0.1227   -3.1312   -2.1033 C   0  0  0  0  0  0  0  0  0  0  0  0
    0.0043   -2.4073   -3.4348 C   0  0  0  0  0  0  0  0  0  0  0  0
   -0.4257   -1.0594   -3.2640 N   0  0  0  0  0  0  0  0  0  0  0  0
   -0.4805   -0.2468   -4.3825 N   0  0  0  0  0  0  0  0  0  0  0  0
    0.1656    0.9482   -4.3996 C   0  0  0  0  0  0  0  0  0  0  0  0
    0.9518    1.3414   -3.1923 C   0  0  0  0  0  0  0  0  0  0  0  0
    0.7744    2.7371   -2.8685 N   0  0  0  0  0  0  0  0  0  0  0  0
   -0.0116    3.1346   -1.8619 C   0  0  0  0  0  0  0  0  0  0  0  0
    0.0036    4.5900   -1.5571 C   0  0  0  0  0  0  0  0  0  0  0  0
   -1.1809    5.3896   -2.1637 C   0  0  0  0  0  0  0  0  0  0  0  0
   -1.0179    6.8606   -2.0351 C   0  0  0  0  0  0  0  0  0  0  0  0
   -1.5683    4.9504   -3.5296 C   0  0  0  0  0  0  0  0  0  0  0  0
    0.0372    4.6956   -0.1061 N   0  0  0  0  0  0  0  0  0  0  0  0
    1.2473    4.6426    0.5325 C   0  0  0  0  0  0  0  0  0  0  0  0
    1.3708    4.6665    2.0155 C   0  0  0  0  0  0  0  0  0  0  0  0
    1.4002    3.2248    2.4293 C   0  0  0  0  0  0  0  0  0  0  0  0
    1.3059    3.0725    3.8308 C   0  0  0  0  0  0  0  0  0  0  0  0
    2.1695    3.9609    4.5756 N   0  0  0  0  0  0  0  0  0  0  0  0
    2.6467    3.5391    5.7504 C   0  0  0  0  0  0  0  0  0  0  0  0
    3.3268    4.4369    6.5248 C   0  0  0  0  0  0  0  0  0  0  0  0
    3.9186    5.1352    7.2128 C   0  0  0  0  0  0  0  0  0  0  0  0
    4.6515    6.1553    7.8314 C   0  0  0  0  0  0  0  0  0  0  0  0
    5.8578    6.3533    7.1228 N   0  0  0  0  0  0  0  0  0  0  0  0
    5.9866    7.3657    6.1717 C   0  0  0  0  0  0  0  0  0  0  0  0
    6.9754    5.5536    7.3760 C   0  0  0  0  0  0  0  0  0  0  0  0
    4.9373    5.8125    9.2685 C   0  0  0  0  0  0  0  0  0  0  0  0
    3.8454    7.4630    7.8657 C   0  0  0  0  0  0  0  0  0  0  0  0
    2.4661    2.3774    6.1339 O   0  0  0  0  0  0  0  0  0  0  0  0
    2.4388    5.2865    4.0783 C   0  0  0  0  0  0  0  0  0  0  0  0
    2.5562    5.3837    2.6217 C   0  0  0  0  0  0  0  0  0  0  0  0
    2.2828    4.5324   -0.1527 O   0  0  0  0  0  0  0  0  0  0  0  0
   -1.2441    4.7310    0.6154 C   0  0  0  0  0  0  0  0  0  0  0  0
   -0.6134    2.3172   -1.1826 O   0  0  0  0  0  0  0  0  0  0  0  0
    2.4804    1.0324   -3.4069 C   0  0  0  0  0  0  0  0  0  0  0  0
    3.3671    1.2974   -2.1641 C   0  0  0  0  0  0  0  0  0  0  0  0
    3.1179    0.1997   -1.1963 C   0  0  0  0  0  0  0  0  0  0  0  0
    3.9686    0.3043   -0.0342 N   0  0  0  0  0  0  0  0  0  0  0  0
    5.3980    0.4373   -0.3201 C   0  0  0  0  0  0  0  0  0  0  0  0
    5.6396    1.4742   -1.4283 C   0  0  0  0  0  0  0  0  0  0  0  0
    4.7562    1.2571   -2.5821 O   0  0  0  0  0  0  0  0  0  0  0  0
    0.1416    1.6912   -5.3968 O   0  0  0  0  0  0  0  0  0  0  0  0
   -1.3094   -0.7190   -5.4834 C   0  0  0  0  0  0  0  0  0  0  0  0
   -0.9259   -2.1757   -5.8024 C   0  0  0  0  0  0  0  0  0  0  0  0
   -0.8726   -3.0521   -4.5515 C   0  0  0  0  0  0  0  0  0  0  0  0
   -0.2729   -4.3609   -2.1336 O   0  0  0  0  0  0  0  0  0  0  0  0
    1.6845   -0.8982    2.5576 C   0  0  0  0  0  0  0  0  0  0  0  0
    2.5248   -1.1417    3.6376 C   0  0  0  0  0  0  0  0  0  0  0  0
    3.9277   -0.9090    3.4904 C   0  0  0  0  0  0  0  0  0  0  0  0
    4.3729   -0.4346    2.2497 C   0  0  0  0  0  0  0  0  0  0  0  0
    3.5015   -0.1890    1.1853 C   0  0  0  0  0  0  0  0  0  0  0  0
    2.1335   -0.4104    1.3408 C   0  0  0  0  0  0  0  0  0  0  0  0
    0.3586    5.3589    2.5646 F   0  0  0  0  0  0  0  0  0  0  0  0
  1  2  1  0  0  0  0
  2  3  1  0  0  0  0
  2  5  1  0  0  0  0
  3  4  1  0  0  0  0
  5  6  4  0  0  0  0
  5 10  4  0  0  0  0
  6  7  4  0  0  0  0
  7  8  4  0  0  0  0
  8  9  4  0  0  0  0
  9 10  4  0  0  0  0
 10 11  1  0  0  0  0
 11 12  4  0  0  0  0
 11 15  4  0  0  0  0
 12 13  1  0  0  0  0
 12 68  4  0  0  0  0
 13 14  1  0  0  0  0
 15 16  1  0  0  0  0
 15 67  4  0  0  0  0
 16 17  1  0  0  0  0
 17 18  1  0  0  0  0
 17 19  1  0  0  0  0
 17 20  1  0  0  0  0
 20 21  1  0  0  0  0
 21 22  1  0  0  0  0
 22 23  1  0  0  0  0
 22 66  2  0  0  0  0
 23 24  1  0  0  0  0
 23 65  1  0  0  0  0
 24 25  1  0  0  0  0
 25 26  1  0  0  0  0
 25 63  1  0  0  0  0
 26 27  1  0  0  0  0
 26 62  2  0  0  0  0
 27 28  1  0  0  0  0
 27 55  1  0  0  0  0
 28 29  1  0  0  0  0
 29 30  1  0  0  0  0
 29 54  2  0  0  0  0
 30 31  1  0  0  0  0
 30 34  1  0  0  0  0
 31 32  1  0  0  0  0
 31 33  1  0  0  0  0
 34 35  1  0  0  0  0
 34 53  1  0  0  0  0
 35 36  1  0  0  0  0
 35 52  2  0  0  0  0
 36 37  1  0  0  0  0
 36 51  1  0  0  0  0
 36 73  1  0  0  0  0
 37 38  1  0  0  0  0
 38 39  1  0  0  0  0
 39 40  1  0  0  0  0
 39 50  1  0  0  0  0
 40 41  1  0  0  0  0
 40 49  2  0  0  0  0
 41 42  1  0  0  0  0
 42 43  1  0  0  0  0
 43 44  1  0  0  0  0
 43 47  1  0  0  0  0
 43 48  1  0  0  0  0
 44 45  1  0  0  0  0
 44 46  1  0  0  0  0
 50 51  1  0  0  0  0
 55 56  1  0  0  0  0
 56 57  1  0  0  0  0
 56 61  1  0  0  0  0
 57 58  1  0  0  0  0
 58 59  1  0  0  0  0
 58 71  1  0  0  0  0
 59 60  1  0  0  0  0
 60 61  1  0  0  0  0
 63 64  1  0  0  0  0
 64 65  1  0  0  0  0
 67 68  4  0  0  0  0
 67 72  4  0  0  0  0
 68 69  4  0  0  0  0
 69 70  4  0  0  0  0
 70 71  4  0  0  0  0
 71 72  4  0  0  0  0
M  END
$$$$
