mol_ETKDG2_106
  PyMOL3.1          3D                             0

 73 79  0  0  0  0  0  0  0  0999 V2000
    2.4697   -3.0474    3.2709 C   0  0  0  0  0  0  0  0  0  0  0  0
    1.2465   -2.2631    3.2371 C   0  0  0  0  0  0  0  0  0  0  0  0
    1.1667   -1.0876    3.9447 O   0  0  0  0  0  0  0  0  0  0  0  0
    2.1778   -0.1276    3.7372 C   0  0  0  0  0  0  0  0  0  0  0  0
    0.0322   -3.0166    3.4913 C   0  0  0  0  0  0  0  0  0  0  0  0
    0.0758   -3.9977    4.3843 N   0  0  0  0  0  0  0  0  0  0  0  0
   -1.0163   -4.7147    4.6934 C   0  0  0  0  0  0  0  0  0  0  0  0
   -2.2292   -4.4870    4.0586 C   0  0  0  0  0  0  0  0  0  0  0  0
   -2.2898   -3.4638    3.1133 C   0  0  0  0  0  0  0  0  0  0  0  0
   -1.1305   -2.7193    2.8264 C   0  0  0  0  0  0  0  0  0  0  0  0
   -1.2081   -1.6691    1.8303 C   0  0  0  0  0  0  0  0  0  0  0  0
   -1.8145   -0.4841    2.0509 N   0  0  0  0  0  0  0  0  0  0  0  0
   -2.4173    0.0058    3.3352 C   0  0  0  0  0  0  0  0  0  0  0  0
   -3.8726    0.0086    3.3495 C   0  0  0  0  0  0  0  0  0  0  0  0
   -0.6239   -1.6785    0.5384 C   0  0  0  0  0  0  0  0  0  0  0  0
    0.3125   -2.6539   -0.1029 C   0  0  0  0  0  0  0  0  0  0  0  0
   -0.3273   -3.8647   -0.8442 C   0  0  0  0  0  0  0  0  0  0  0  0
    0.7972   -4.8132   -1.2613 C   0  0  0  0  0  0  0  0  0  0  0  0
   -1.2042   -4.6882    0.0214 C   0  0  0  0  0  0  0  0  0  0  0  0
   -1.0803   -3.3821   -2.0222 C   0  0  0  0  0  0  0  0  0  0  0  0
   -0.2827   -3.1306   -3.2736 O   0  0  0  0  0  0  0  0  0  0  0  0
   -0.7525   -3.4439   -4.5749 C   0  0  0  0  0  0  0  0  0  0  0  0
    0.1141   -3.1372   -5.7623 C   0  0  0  0  0  0  0  0  0  0  0  0
    1.3596   -2.5397   -5.3847 N   0  0  0  0  0  0  0  0  0  0  0  0
    2.2163   -2.1866   -6.4261 N   0  0  0  0  0  0  0  0  0  0  0  0
    2.6829   -0.9103   -6.5643 C   0  0  0  0  0  0  0  0  0  0  0  0
    2.3141    0.1012   -5.5276 C   0  0  0  0  0  0  0  0  0  0  0  0
    3.4049    1.0000   -5.2466 N   0  0  0  0  0  0  0  0  0  0  0  0
    4.2624    0.8074   -4.2416 C   0  0  0  0  0  0  0  0  0  0  0  0
    5.2330    1.9072   -3.9772 C   0  0  0  0  0  0  0  0  0  0  0  0
    6.6949    1.6010   -4.4334 C   0  0  0  0  0  0  0  0  0  0  0  0
    7.5702    2.8073   -4.4163 C   0  0  0  0  0  0  0  0  0  0  0  0
    6.7591    0.8479   -5.7223 C   0  0  0  0  0  0  0  0  0  0  0  0
    5.1152    2.2034   -2.5553 N   0  0  0  0  0  0  0  0  0  0  0  0
    4.1136    3.0471   -2.1634 C   0  0  0  0  0  0  0  0  0  0  0  0
    3.7752    3.3854   -0.7455 C   0  0  0  0  0  0  0  0  0  0  0  0
    2.6943    2.4144   -0.3259 C   0  0  0  0  0  0  0  0  0  0  0  0
    2.2757    2.6573    1.0589 C   0  0  0  0  0  0  0  0  0  0  0  0
    1.9080    4.0632    1.2263 N   0  0  0  0  0  0  0  0  0  0  0  0
    0.7165    4.3913    1.7821 C   0  0  0  0  0  0  0  0  0  0  0  0
    0.3225    5.7041    1.8219 C   0  0  0  0  0  0  0  0  0  0  0  0
   -0.0696    6.7652    1.9145 C   0  0  0  0  0  0  0  0  0  0  0  0
   -0.3753    8.1404    1.8899 C   0  0  0  0  0  0  0  0  0  0  0  0
   -1.3586    8.3920    0.9094 N   0  0  0  0  0  0  0  0  0  0  0  0
   -1.0153    8.4277   -0.4431 C   0  0  0  0  0  0  0  0  0  0  0  0
   -2.7261    8.3470    1.2309 C   0  0  0  0  0  0  0  0  0  0  0  0
    0.8886    8.9485    1.5917 C   0  0  0  0  0  0  0  0  0  0  0  0
   -0.8535    8.5952    3.2432 C   0  0  0  0  0  0  0  0  0  0  0  0
   -0.0245    3.5268    2.2518 O   0  0  0  0  0  0  0  0  0  0  0  0
    2.8519    5.0507    0.7790 C   0  0  0  0  0  0  0  0  0  0  0  0
    3.2929    4.8228   -0.5970 C   0  0  0  0  0  0  0  0  0  0  0  0
    3.4013    3.5528   -3.0597 O   0  0  0  0  0  0  0  0  0  0  0  0
    5.9705    1.4728   -1.6055 C   0  0  0  0  0  0  0  0  0  0  0  0
    4.1474   -0.1681   -3.5206 O   0  0  0  0  0  0  0  0  0  0  0  0
    1.0422    0.9264   -5.9580 C   0  0  0  0  0  0  0  0  0  0  0  0
    0.5096    1.8836   -4.8562 C   0  0  0  0  0  0  0  0  0  0  0  0
   -0.2788    1.0672   -3.8840 C   0  0  0  0  0  0  0  0  0  0  0  0
   -0.9079    1.8859   -2.8753 N   0  0  0  0  0  0  0  0  0  0  0  0
   -1.6808    3.0167   -3.3954 C   0  0  0  0  0  0  0  0  0  0  0  0
   -0.9132    3.7649   -4.4906 C   0  0  0  0  0  0  0  0  0  0  0  0
   -0.3617    2.8432   -5.4888 O   0  0  0  0  0  0  0  0  0  0  0  0
    3.3855   -0.5644   -7.5297 O   0  0  0  0  0  0  0  0  0  0  0  0
    2.6170   -3.2811   -7.3070 C   0  0  0  0  0  0  0  0  0  0  0  0
    1.3651   -4.0451   -7.7754 C   0  0  0  0  0  0  0  0  0  0  0  0
    0.4103   -4.3863   -6.6312 C   0  0  0  0  0  0  0  0  0  0  0  0
   -1.8532   -3.9849   -4.8428 O   0  0  0  0  0  0  0  0  0  0  0  0
   -1.0125   -0.4559   -0.0270 C   0  0  0  0  0  0  0  0  0  0  0  0
   -1.7243    0.2466    0.9305 C   0  0  0  0  0  0  0  0  0  0  0  0
   -2.1918    1.5627    0.6192 C   0  0  0  0  0  0  0  0  0  0  0  0
   -1.8942    2.0778   -0.6471 C   0  0  0  0  0  0  0  0  0  0  0  0
   -1.1831    1.3492   -1.6068 C   0  0  0  0  0  0  0  0  0  0  0  0
   -0.7260    0.0578   -1.2919 C   0  0  0  0  0  0  0  0  0  0  0  0
    4.8568    3.2993    0.0875 F   0  0  0  0  0  0  0  0  0  0  0  0
  1  2  1  0  0  0  0
  2  3  1  0  0  0  0
  2  5  1  0  0  0  0
  3  4  1  0  0  0  0
  5  6  4  0  0  0  0
  5 10  4  0  0  0  0
  6  7  4  0  0  0  0
  7  8  4  0  0  0  0
  8  9  4  0  0  0  0
  9 10  4  0  0  0  0
 10 11  1  0  0  0  0
 11 12  4  0  0  0  0
 11 15  4  0  0  0  0
 12 13  1  0  0  0  0
 12 68  4  0  0  0  0
 13 14  1  0  0  0  0
 15 16  1  0  0  0  0
 15 67  4  0  0  0  0
 16 17  1  0  0  0  0
 17 18  1  0  0  0  0
 17 19  1  0  0  0  0
 17 20  1  0  0  0  0
 20 21  1  0  0  0  0
 21 22  1  0  0  0  0
 22 23  1  0  0  0  0
 22 66  2  0  0  0  0
 23 24  1  0  0  0  0
 23 65  1  0  0  0  0
 24 25  1  0  0  0  0
 25 26  1  0  0  0  0
 25 63  1  0  0  0  0
 26 27  1  0  0  0  0
 26 62  2  0  0  0  0
 27 28  1  0  0  0  0
 27 55  1  0  0  0  0
 28 29  1  0  0  0  0
 29 30  1  0  0  0  0
 29 54  2  0  0  0  0
 30 31  1  0  0  0  0
 30 34  1  0  0  0  0
 31 32  1  0  0  0  0
 31 33  1  0  0  0  0
 34 35  1  0  0  0  0
 34 53  1  0  0  0  0
 35 36  1  0  0  0  0
 35 52  2  0  0  0  0
 36 37  1  0  0  0  0
 36 51  1  0  0  0  0
 36 73  1  0  0  0  0
 37 38  1  0  0  0  0
 38 39  1  0  0  0  0
 39 40  1  0  0  0  0
 39 50  1  0  0  0  0
 40 41  1  0  0  0  0
 40 49  2  0  0  0  0
 41 42  1  0  0  0  0
 42 43  1  0  0  0  0
 43 44  1  0  0  0  0
 43 47  1  0  0  0  0
 43 48  1  0  0  0  0
 44 45  1  0  0  0  0
 44 46  1  0  0  0  0
 50 51  1  0  0  0  0
 55 56  1  0  0  0  0
 56 57  1  0  0  0  0
 56 61  1  0  0  0  0
 57 58  1  0  0  0  0
 58 59  1  0  0  0  0
 58 71  1  0  0  0  0
 59 60  1  0  0  0  0
 60 61  1  0  0  0  0
 63 64  1  0  0  0  0
 64 65  1  0  0  0  0
 67 68  4  0  0  0  0
 67 72  4  0  0  0  0
 68 69  4  0  0  0  0
 69 70  4  0  0  0  0
 70 71  4  0  0  0  0
 71 72  4  0  0  0  0
M  END
$$$$
