mol_ETKDG4_204
  PyMOL3.1          3D                             0

 73 79  0  0  0  0  0  0  0  0999 V2000
    1.7539   -4.8577   -2.8397 C   0  0  0  0  0  0  0  0  0  0  0  0
    0.8058   -3.8791   -3.4161 C   0  0  0  0  0  0  0  0  0  0  0  0
    1.2292   -3.2542   -4.6190 O   0  0  0  0  0  0  0  0  0  0  0  0
    2.2389   -2.2749   -4.5040 C   0  0  0  0  0  0  0  0  0  0  0  0
   -0.5154   -4.4707   -3.6782 C   0  0  0  0  0  0  0  0  0  0  0  0
   -0.6637   -5.1944   -4.7799 N   0  0  0  0  0  0  0  0  0  0  0  0
   -1.8420   -5.7921   -5.0709 C   0  0  0  0  0  0  0  0  0  0  0  0
   -2.9478   -5.6859   -4.2175 C   0  0  0  0  0  0  0  0  0  0  0  0
   -2.8034   -4.9378   -3.0435 C   0  0  0  0  0  0  0  0  0  0  0  0
   -1.5672   -4.3178   -2.7852 C   0  0  0  0  0  0  0  0  0  0  0  0
   -1.4530   -3.5237   -1.5882 C   0  0  0  0  0  0  0  0  0  0  0  0
   -1.2712   -4.0505   -0.3548 N   0  0  0  0  0  0  0  0  0  0  0  0
   -1.0646   -5.4946    0.0008 C   0  0  0  0  0  0  0  0  0  0  0  0
   -2.2310   -6.0971    0.6543 C   0  0  0  0  0  0  0  0  0  0  0  0
   -1.4720   -2.1051   -1.5198 C   0  0  0  0  0  0  0  0  0  0  0  0
   -1.4620   -1.0652   -2.6017 C   0  0  0  0  0  0  0  0  0  0  0  0
   -2.8724   -0.5957   -3.1236 C   0  0  0  0  0  0  0  0  0  0  0  0
   -3.6253   -1.7006   -3.8417 C   0  0  0  0  0  0  0  0  0  0  0  0
   -2.6191    0.4397   -4.1862 C   0  0  0  0  0  0  0  0  0  0  0  0
   -3.7373   -0.0500   -1.9778 C   0  0  0  0  0  0  0  0  0  0  0  0
   -3.5146    1.4288   -1.7057 O   0  0  0  0  0  0  0  0  0  0  0  0
   -4.4984    2.4459   -1.9024 C   0  0  0  0  0  0  0  0  0  0  0  0
   -4.1294    3.8926   -1.6135 C   0  0  0  0  0  0  0  0  0  0  0  0
   -2.7042    4.0684   -1.6963 N   0  0  0  0  0  0  0  0  0  0  0  0
   -2.1913    5.3513   -1.5238 N   0  0  0  0  0  0  0  0  0  0  0  0
   -1.1744    5.5988   -0.6365 C   0  0  0  0  0  0  0  0  0  0  0  0
   -0.5862    4.4594    0.1486 C   0  0  0  0  0  0  0  0  0  0  0  0
    0.8479    4.6171    0.3009 N   0  0  0  0  0  0  0  0  0  0  0  0
    1.7227    3.9629   -0.4770 C   0  0  0  0  0  0  0  0  0  0  0  0
    3.1727    4.0781   -0.1324 C   0  0  0  0  0  0  0  0  0  0  0  0
    3.9758    5.1263   -0.9701 C   0  0  0  0  0  0  0  0  0  0  0  0
    5.3186    5.4148   -0.3772 C   0  0  0  0  0  0  0  0  0  0  0  0
    3.2033    6.3535   -1.3118 C   0  0  0  0  0  0  0  0  0  0  0  0
    3.7204    2.7290   -0.2998 N   0  0  0  0  0  0  0  0  0  0  0  0
    3.5710    1.8376    0.7265 C   0  0  0  0  0  0  0  0  0  0  0  0
    4.0109    0.3993    0.6845 C   0  0  0  0  0  0  0  0  0  0  0  0
    4.2559   -0.1943    2.0755 C   0  0  0  0  0  0  0  0  0  0  0  0
    4.5786   -1.6599    1.9750 C   0  0  0  0  0  0  0  0  0  0  0  0
    3.5519   -2.3506    1.1573 N   0  0  0  0  0  0  0  0  0  0  0  0
    2.8717   -3.4604    1.5539 C   0  0  0  0  0  0  0  0  0  0  0  0
    2.8114   -3.8913    2.8686 C   0  0  0  0  0  0  0  0  0  0  0  0
    2.7226   -4.3577    3.9344 C   0  0  0  0  0  0  0  0  0  0  0  0
    2.6897   -4.7510    5.2826 C   0  0  0  0  0  0  0  0  0  0  0  0
    3.7411   -4.1085    5.9767 N   0  0  0  0  0  0  0  0  0  0  0  0
    3.4878   -3.0819    6.8849 C   0  0  0  0  0  0  0  0  0  0  0  0
    5.0651   -4.5736    5.8406 C   0  0  0  0  0  0  0  0  0  0  0  0
    2.8369   -6.2513    5.4269 C   0  0  0  0  0  0  0  0  0  0  0  0
    1.3486   -4.3964    5.8933 C   0  0  0  0  0  0  0  0  0  0  0  0
    2.2294   -4.0999    0.6976 O   0  0  0  0  0  0  0  0  0  0  0  0
    3.2645   -1.7948   -0.1304 C   0  0  0  0  0  0  0  0  0  0  0  0
    2.8941   -0.3636   -0.0087 C   0  0  0  0  0  0  0  0  0  0  0  0
    2.9973    2.2417    1.7584 O   0  0  0  0  0  0  0  0  0  0  0  0
    4.2843    2.3495   -1.6136 C   0  0  0  0  0  0  0  0  0  0  0  0
    1.3058    3.2139   -1.3488 O   0  0  0  0  0  0  0  0  0  0  0  0
   -1.2550    4.3360    1.5739 C   0  0  0  0  0  0  0  0  0  0  0  0
   -0.7892    3.0786    2.3810 C   0  0  0  0  0  0  0  0  0  0  0  0
   -1.4604    1.8857    1.7864 C   0  0  0  0  0  0  0  0  0  0  0  0
   -1.1834    0.6685    2.5364 N   0  0  0  0  0  0  0  0  0  0  0  0
   -1.4734    0.7667    3.9763 C   0  0  0  0  0  0  0  0  0  0  0  0
   -0.8784    2.0596    4.5579 C   0  0  0  0  0  0  0  0  0  0  0  0
   -1.2492    3.2402    3.7543 O   0  0  0  0  0  0  0  0  0  0  0  0
   -0.7481    6.7532   -0.4498 O   0  0  0  0  0  0  0  0  0  0  0  0
   -2.7505    6.3879   -2.3975 C   0  0  0  0  0  0  0  0  0  0  0  0
   -4.2905    6.3098   -2.3844 C   0  0  0  0  0  0  0  0  0  0  0  0
   -4.8046    4.8908   -2.6001 C   0  0  0  0  0  0  0  0  0  0  0  0
   -5.6632    2.2161   -2.2886 O   0  0  0  0  0  0  0  0  0  0  0  0
   -1.3772   -1.8368   -0.1474 C   0  0  0  0  0  0  0  0  0  0  0  0
   -1.2428   -3.0426    0.5272 C   0  0  0  0  0  0  0  0  0  0  0  0
   -1.0669   -3.0290    1.9528 C   0  0  0  0  0  0  0  0  0  0  0  0
   -1.0528   -1.7806    2.5864 C   0  0  0  0  0  0  0  0  0  0  0  0
   -1.2031   -0.5713    1.8816 C   0  0  0  0  0  0  0  0  0  0  0  0
   -1.3537   -0.5954    0.4888 C   0  0  0  0  0  0  0  0  0  0  0  0
    5.1939    0.2527   -0.0033 F   0  0  0  0  0  0  0  0  0  0  0  0
  1  2  1  0  0  0  0
  2  3  1  0  0  0  0
  2  5  1  0  0  0  0
  3  4  1  0  0  0  0
  5  6  4  0  0  0  0
  5 10  4  0  0  0  0
  6  7  4  0  0  0  0
  7  8  4  0  0  0  0
  8  9  4  0  0  0  0
  9 10  4  0  0  0  0
 10 11  1  0  0  0  0
 11 12  4  0  0  0  0
 11 15  4  0  0  0  0
 12 13  1  0  0  0  0
 12 68  4  0  0  0  0
 13 14  1  0  0  0  0
 15 16  1  0  0  0  0
 15 67  4  0  0  0  0
 16 17  1  0  0  0  0
 17 18  1  0  0  0  0
 17 19  1  0  0  0  0
 17 20  1  0  0  0  0
 20 21  1  0  0  0  0
 21 22  1  0  0  0  0
 22 23  1  0  0  0  0
 22 66  2  0  0  0  0
 23 24  1  0  0  0  0
 23 65  1  0  0  0  0
 24 25  1  0  0  0  0
 25 26  1  0  0  0  0
 25 63  1  0  0  0  0
 26 27  1  0  0  0  0
 26 62  2  0  0  0  0
 27 28  1  0  0  0  0
 27 55  1  0  0  0  0
 28 29  1  0  0  0  0
 29 30  1  0  0  0  0
 29 54  2  0  0  0  0
 30 31  1  0  0  0  0
 30 34  1  0  0  0  0
 31 32  1  0  0  0  0
 31 33  1  0  0  0  0
 34 35  1  0  0  0  0
 34 53  1  0  0  0  0
 35 36  1  0  0  0  0
 35 52  2  0  0  0  0
 36 37  1  0  0  0  0
 36 51  1  0  0  0  0
 36 73  1  0  0  0  0
 37 38  1  0  0  0  0
 38 39  1  0  0  0  0
 39 40  1  0  0  0  0
 39 50  1  0  0  0  0
 40 41  1  0  0  0  0
 40 49  2  0  0  0  0
 41 42  1  0  0  0  0
 42 43  1  0  0  0  0
 43 44  1  0  0  0  0
 43 47  1  0  0  0  0
 43 48  1  0  0  0  0
 44 45  1  0  0  0  0
 44 46  1  0  0  0  0
 50 51  1  0  0  0  0
 55 56  1  0  0  0  0
 56 57  1  0  0  0  0
 56 61  1  0  0  0  0
 57 58  1  0  0  0  0
 58 59  1  0  0  0  0
 58 71  1  0  0  0  0
 59 60  1  0  0  0  0
 60 61  1  0  0  0  0
 63 64  1  0  0  0  0
 64 65  1  0  0  0  0
 67 68  4  0  0  0  0
 67 72  4  0  0  0  0
 68 69  4  0  0  0  0
 69 70  4  0  0  0  0
 70 71  4  0  0  0  0
 71 72  4  0  0  0  0
M  END
$$$$
