mol_ETKDG2_107
  PyMOL3.1          3D                             0

 73 79  0  0  0  0  0  0  0  0999 V2000
    6.4283    3.5761    0.2167 C   0  0  0  0  0  0  0  0  0  0  0  0
    6.3954    2.1950   -0.2961 C   0  0  0  0  0  0  0  0  0  0  0  0
    6.2407    2.0500   -1.6902 O   0  0  0  0  0  0  0  0  0  0  0  0
    4.9997    2.3745   -2.2593 C   0  0  0  0  0  0  0  0  0  0  0  0
    7.5976    1.4320    0.0791 C   0  0  0  0  0  0  0  0  0  0  0  0
    8.7013    1.6175   -0.6321 N   0  0  0  0  0  0  0  0  0  0  0  0
    9.8505    0.9798   -0.3255 C   0  0  0  0  0  0  0  0  0  0  0  0
    9.9333    0.1063    0.7626 C   0  0  0  0  0  0  0  0  0  0  0  0
    8.7823   -0.0931    1.5317 C   0  0  0  0  0  0  0  0  0  0  0  0
    7.5982    0.5712    1.1680 C   0  0  0  0  0  0  0  0  0  0  0  0
    6.4110    0.3268    1.9531 C   0  0  0  0  0  0  0  0  0  0  0  0
    6.1990    0.8725    3.1741 N   0  0  0  0  0  0  0  0  0  0  0  0
    7.0688    1.8647    3.8902 C   0  0  0  0  0  0  0  0  0  0  0  0
    7.6919    1.3524    5.0972 C   0  0  0  0  0  0  0  0  0  0  0  0
    5.2937   -0.4523    1.5525 C   0  0  0  0  0  0  0  0  0  0  0  0
    4.9647   -1.1058    0.2343 C   0  0  0  0  0  0  0  0  0  0  0  0
    5.5022   -2.5656   -0.0019 C   0  0  0  0  0  0  0  0  0  0  0  0
    5.2347   -2.9336   -1.4602 C   0  0  0  0  0  0  0  0  0  0  0  0
    6.9734   -2.6717    0.1517 C   0  0  0  0  0  0  0  0  0  0  0  0
    4.8201   -3.5381    0.9299 C   0  0  0  0  0  0  0  0  0  0  0  0
    3.4274   -3.9692    0.5047 O   0  0  0  0  0  0  0  0  0  0  0  0
    2.9752   -5.3170    0.5024 C   0  0  0  0  0  0  0  0  0  0  0  0
    1.5507   -5.6234    0.0893 C   0  0  0  0  0  0  0  0  0  0  0  0
    0.8957   -4.4585   -0.4150 N   0  0  0  0  0  0  0  0  0  0  0  0
   -0.4200   -4.5955   -0.8468 N   0  0  0  0  0  0  0  0  0  0  0  0
   -1.4086   -3.7775   -0.3689 C   0  0  0  0  0  0  0  0  0  0  0  0
   -1.0439   -2.6821    0.5869 C   0  0  0  0  0  0  0  0  0  0  0  0
   -1.7885   -1.4627    0.3311 N   0  0  0  0  0  0  0  0  0  0  0  0
   -1.2799   -0.4205   -0.3464 C   0  0  0  0  0  0  0  0  0  0  0  0
   -2.1002    0.8231   -0.3945 C   0  0  0  0  0  0  0  0  0  0  0  0
   -2.9320    1.0409   -1.6903 C   0  0  0  0  0  0  0  0  0  0  0  0
   -3.9266    2.1424   -1.5488 C   0  0  0  0  0  0  0  0  0  0  0  0
   -3.5068   -0.2052   -2.2641 C   0  0  0  0  0  0  0  0  0  0  0  0
   -1.1935    1.9437   -0.1588 N   0  0  0  0  0  0  0  0  0  0  0  0
   -0.9372    2.3136    1.1295 C   0  0  0  0  0  0  0  0  0  0  0  0
   -0.0081    3.4265    1.5293 C   0  0  0  0  0  0  0  0  0  0  0  0
   -0.2449    3.9232    2.9567 C   0  0  0  0  0  0  0  0  0  0  0  0
    0.7787    4.9557    3.3327 C   0  0  0  0  0  0  0  0  0  0  0  0
    2.1360    4.4305    3.0743 N   0  0  0  0  0  0  0  0  0  0  0  0
    3.1260    4.3784    4.0108 C   0  0  0  0  0  0  0  0  0  0  0  0
    2.8785    4.5348    5.3565 C   0  0  0  0  0  0  0  0  0  0  0  0
    2.8058    4.6963    6.4948 C   0  0  0  0  0  0  0  0  0  0  0  0
    2.5931    4.8759    7.8788 C   0  0  0  0  0  0  0  0  0  0  0  0
    3.7665    5.4166    8.4868 N   0  0  0  0  0  0  0  0  0  0  0  0
    4.9300    4.6240    8.5733 C   0  0  0  0  0  0  0  0  0  0  0  0
    3.9390    6.8159    8.6224 C   0  0  0  0  0  0  0  0  0  0  0  0
    2.2296    3.5518    8.5252 C   0  0  0  0  0  0  0  0  0  0  0  0
    1.4141    5.7903    8.0923 C   0  0  0  0  0  0  0  0  0  0  0  0
    4.2861    4.1347    3.6521 O   0  0  0  0  0  0  0  0  0  0  0  0
    2.3928    3.9277    1.7646 C   0  0  0  0  0  0  0  0  0  0  0  0
    1.4039    2.8713    1.4241 C   0  0  0  0  0  0  0  0  0  0  0  0
   -1.4995    1.6659    2.0307 O   0  0  0  0  0  0  0  0  0  0  0  0
   -0.5107    2.5575   -1.3161 C   0  0  0  0  0  0  0  0  0  0  0  0
   -0.1440   -0.4847   -0.7880 O   0  0  0  0  0  0  0  0  0  0  0  0
   -1.2863   -3.1411    2.0738 C   0  0  0  0  0  0  0  0  0  0  0  0
   -0.8239   -2.1107    3.1406 C   0  0  0  0  0  0  0  0  0  0  0  0
    0.6641   -2.1185    3.1509 C   0  0  0  0  0  0  0  0  0  0  0  0
    1.2136   -1.2837    4.1979 N   0  0  0  0  0  0  0  0  0  0  0  0
    0.6701   -1.5357    5.5390 C   0  0  0  0  0  0  0  0  0  0  0  0
   -0.8594   -1.6486    5.4985 C   0  0  0  0  0  0  0  0  0  0  0  0
   -1.3186   -2.5521    4.4308 O   0  0  0  0  0  0  0  0  0  0  0  0
   -2.6026   -3.9402   -0.6856 O   0  0  0  0  0  0  0  0  0  0  0  0
   -0.6514   -5.6142   -1.8742 C   0  0  0  0  0  0  0  0  0  0  0  0
    0.0154   -6.9386   -1.4564 C   0  0  0  0  0  0  0  0  0  0  0  0
    1.4588   -6.7498   -0.9772 C   0  0  0  0  0  0  0  0  0  0  0  0
    3.6802   -6.2978    0.8201 O   0  0  0  0  0  0  0  0  0  0  0  0
    4.4345   -0.3916    2.6602 C   0  0  0  0  0  0  0  0  0  0  0  0
    5.0129    0.4336    3.6219 C   0  0  0  0  0  0  0  0  0  0  0  0
    4.2964    0.7009    4.8376 C   0  0  0  0  0  0  0  0  0  0  0  0
    3.0386    0.1110    4.9887 C   0  0  0  0  0  0  0  0  0  0  0  0
    2.4794   -0.7180    4.0138 C   0  0  0  0  0  0  0  0  0  0  0  0
    3.1830   -0.9712    2.8208 C   0  0  0  0  0  0  0  0  0  0  0  0
   -0.1676    4.5172    0.7043 F   0  0  0  0  0  0  0  0  0  0  0  0
  1  2  1  0  0  0  0
  2  3  1  0  0  0  0
  2  5  1  0  0  0  0
  3  4  1  0  0  0  0
  5  6  4  0  0  0  0
  5 10  4  0  0  0  0
  6  7  4  0  0  0  0
  7  8  4  0  0  0  0
  8  9  4  0  0  0  0
  9 10  4  0  0  0  0
 10 11  1  0  0  0  0
 11 12  4  0  0  0  0
 11 15  4  0  0  0  0
 12 13  1  0  0  0  0
 12 68  4  0  0  0  0
 13 14  1  0  0  0  0
 15 16  1  0  0  0  0
 15 67  4  0  0  0  0
 16 17  1  0  0  0  0
 17 18  1  0  0  0  0
 17 19  1  0  0  0  0
 17 20  1  0  0  0  0
 20 21  1  0  0  0  0
 21 22  1  0  0  0  0
 22 23  1  0  0  0  0
 22 66  2  0  0  0  0
 23 24  1  0  0  0  0
 23 65  1  0  0  0  0
 24 25  1  0  0  0  0
 25 26  1  0  0  0  0
 25 63  1  0  0  0  0
 26 27  1  0  0  0  0
 26 62  2  0  0  0  0
 27 28  1  0  0  0  0
 27 55  1  0  0  0  0
 28 29  1  0  0  0  0
 29 30  1  0  0  0  0
 29 54  2  0  0  0  0
 30 31  1  0  0  0  0
 30 34  1  0  0  0  0
 31 32  1  0  0  0  0
 31 33  1  0  0  0  0
 34 35  1  0  0  0  0
 34 53  1  0  0  0  0
 35 36  1  0  0  0  0
 35 52  2  0  0  0  0
 36 37  1  0  0  0  0
 36 51  1  0  0  0  0
 36 73  1  0  0  0  0
 37 38  1  0  0  0  0
 38 39  1  0  0  0  0
 39 40  1  0  0  0  0
 39 50  1  0  0  0  0
 40 41  1  0  0  0  0
 40 49  2  0  0  0  0
 41 42  1  0  0  0  0
 42 43  1  0  0  0  0
 43 44  1  0  0  0  0
 43 47  1  0  0  0  0
 43 48  1  0  0  0  0
 44 45  1  0  0  0  0
 44 46  1  0  0  0  0
 50 51  1  0  0  0  0
 55 56  1  0  0  0  0
 56 57  1  0  0  0  0
 56 61  1  0  0  0  0
 57 58  1  0  0  0  0
 58 59  1  0  0  0  0
 58 71  1  0  0  0  0
 59 60  1  0  0  0  0
 60 61  1  0  0  0  0
 63 64  1  0  0  0  0
 64 65  1  0  0  0  0
 67 68  4  0  0  0  0
 67 72  4  0  0  0  0
 68 69  4  0  0  0  0
 69 70  4  0  0  0  0
 70 71  4  0  0  0  0
 71 72  4  0  0  0  0
M  END
$$$$
