mol_ETKDG1_52
  PyMOL3.1          3D                             0

 73 79  0  0  0  0  0  0  0  0999 V2000
   -1.7862    4.0860    2.2721 C   0  0  0  0  0  0  0  0  0  0  0  0
   -1.7055    2.9223    3.1593 C   0  0  0  0  0  0  0  0  0  0  0  0
   -0.5815    2.9330    4.0361 O   0  0  0  0  0  0  0  0  0  0  0  0
    0.7091    2.8558    3.4634 C   0  0  0  0  0  0  0  0  0  0  0  0
   -2.9320    2.7402    3.9693 C   0  0  0  0  0  0  0  0  0  0  0  0
   -2.9286    3.2076    5.2023 N   0  0  0  0  0  0  0  0  0  0  0  0
   -4.0112    3.1147    5.9970 C   0  0  0  0  0  0  0  0  0  0  0  0
   -5.1984    2.5210    5.5498 C   0  0  0  0  0  0  0  0  0  0  0  0
   -5.2408    2.0322    4.2372 C   0  0  0  0  0  0  0  0  0  0  0  0
   -4.0874    2.1352    3.4437 C   0  0  0  0  0  0  0  0  0  0  0  0
   -4.1160    1.6290    2.0869 C   0  0  0  0  0  0  0  0  0  0  0  0
   -4.7562    2.2607    1.0597 N   0  0  0  0  0  0  0  0  0  0  0  0
   -5.5717    3.5262    1.1073 C   0  0  0  0  0  0  0  0  0  0  0  0
   -7.0246    3.2513    1.0319 C   0  0  0  0  0  0  0  0  0  0  0  0
   -3.4073    0.4966    1.6138 C   0  0  0  0  0  0  0  0  0  0  0  0
   -2.5120   -0.4867    2.3403 C   0  0  0  0  0  0  0  0  0  0  0  0
   -3.2678   -1.7242    2.9923 C   0  0  0  0  0  0  0  0  0  0  0  0
   -2.3009   -2.4344    3.9468 C   0  0  0  0  0  0  0  0  0  0  0  0
   -4.4181   -1.3134    3.8331 C   0  0  0  0  0  0  0  0  0  0  0  0
   -3.7538   -2.6929    1.9315 C   0  0  0  0  0  0  0  0  0  0  0  0
   -2.6797   -3.5019    1.2576 O   0  0  0  0  0  0  0  0  0  0  0  0
   -2.8131   -4.8719    0.8992 C   0  0  0  0  0  0  0  0  0  0  0  0
   -1.6638   -5.5525    0.1777 C   0  0  0  0  0  0  0  0  0  0  0  0
   -0.5177   -4.6915    0.1551 N   0  0  0  0  0  0  0  0  0  0  0  0
    0.6474   -5.1844   -0.4345 N   0  0  0  0  0  0  0  0  0  0  0  0
    1.2831   -4.4996   -1.4399 C   0  0  0  0  0  0  0  0  0  0  0  0
    0.6958   -3.1926   -1.8887 C   0  0  0  0  0  0  0  0  0  0  0  0
    1.7086   -2.1778   -2.0917 N   0  0  0  0  0  0  0  0  0  0  0  0
    2.0394   -1.2670   -1.1467 C   0  0  0  0  0  0  0  0  0  0  0  0
    2.9919   -0.2090   -1.5714 C   0  0  0  0  0  0  0  0  0  0  0  0
    4.4612   -0.4249   -1.0591 C   0  0  0  0  0  0  0  0  0  0  0  0
    5.4268    0.5503   -1.6466 C   0  0  0  0  0  0  0  0  0  0  0  0
    4.9208   -1.8484   -1.2222 C   0  0  0  0  0  0  0  0  0  0  0  0
    2.4235    1.0674   -1.1412 N   0  0  0  0  0  0  0  0  0  0  0  0
    1.5068    1.6766   -1.9626 C   0  0  0  0  0  0  0  0  0  0  0  0
    0.7964    2.9741   -1.6786 C   0  0  0  0  0  0  0  0  0  0  0  0
    1.1834    4.0334   -2.6871 C   0  0  0  0  0  0  0  0  0  0  0  0
    0.4119    5.2825   -2.4132 C   0  0  0  0  0  0  0  0  0  0  0  0
   -1.0393    4.9969   -2.2673 N   0  0  0  0  0  0  0  0  0  0  0  0
   -2.0022    5.6869   -2.9088 C   0  0  0  0  0  0  0  0  0  0  0  0
   -1.6925    6.5083   -3.9676 C   0  0  0  0  0  0  0  0  0  0  0  0
   -1.5204    7.2713   -4.8317 C   0  0  0  0  0  0  0  0  0  0  0  0
   -1.1450    8.0973   -5.9079 C   0  0  0  0  0  0  0  0  0  0  0  0
   -1.2078    9.5012   -5.6070 N   0  0  0  0  0  0  0  0  0  0  0  0
   -2.3468   10.0049   -4.9463 C   0  0  0  0  0  0  0  0  0  0  0  0
   -0.4849   10.4347   -6.3895 C   0  0  0  0  0  0  0  0  0  0  0  0
    0.2806    7.7335   -6.2900 C   0  0  0  0  0  0  0  0  0  0  0  0
   -2.0463    7.8082   -7.0993 C   0  0  0  0  0  0  0  0  0  0  0  0
   -3.1922    5.5408   -2.5681 O   0  0  0  0  0  0  0  0  0  0  0  0
   -1.4392    3.9399   -1.3959 C   0  0  0  0  0  0  0  0  0  0  0  0
   -0.7092    2.7108   -1.7011 C   0  0  0  0  0  0  0  0  0  0  0  0
    1.2283    1.0991   -3.0341 O   0  0  0  0  0  0  0  0  0  0  0  0
    2.7789    1.5880    0.1801 C   0  0  0  0  0  0  0  0  0  0  0  0
    1.4892   -1.2765   -0.0580 O   0  0  0  0  0  0  0  0  0  0  0  0
   -0.1358   -3.3908   -3.2139 C   0  0  0  0  0  0  0  0  0  0  0  0
   -0.9347   -2.1320   -3.6597 C   0  0  0  0  0  0  0  0  0  0  0  0
   -2.0650   -1.9565   -2.7051 C   0  0  0  0  0  0  0  0  0  0  0  0
   -2.9289   -0.8618   -3.0755 N   0  0  0  0  0  0  0  0  0  0  0  0
   -3.4180   -0.8794   -4.4488 C   0  0  0  0  0  0  0  0  0  0  0  0
   -2.2864   -1.2331   -5.4320 C   0  0  0  0  0  0  0  0  0  0  0  0
   -1.4888   -2.3900   -4.9830 O   0  0  0  0  0  0  0  0  0  0  0  0
    2.3031   -4.9412   -2.0013 O   0  0  0  0  0  0  0  0  0  0  0  0
    1.1698   -6.4295    0.1345 C   0  0  0  0  0  0  0  0  0  0  0  0
    0.0298   -7.4675    0.2128 C   0  0  0  0  0  0  0  0  0  0  0  0
   -1.2468   -6.9004    0.8506 C   0  0  0  0  0  0  0  0  0  0  0  0
   -3.8169   -5.5753    1.1546 O   0  0  0  0  0  0  0  0  0  0  0  0
   -3.6724    0.5041    0.2301 C   0  0  0  0  0  0  0  0  0  0  0  0
   -4.5058    1.5829   -0.0636 C   0  0  0  0  0  0  0  0  0  0  0  0
   -4.8937    1.8346   -1.4211 C   0  0  0  0  0  0  0  0  0  0  0  0
   -4.3678    0.9864   -2.3947 C   0  0  0  0  0  0  0  0  0  0  0  0
   -3.5047   -0.0701   -2.0784 C   0  0  0  0  0  0  0  0  0  0  0  0
   -3.1695   -0.3362   -0.7444 C   0  0  0  0  0  0  0  0  0  0  0  0
    1.0673    3.4923   -0.4503 F   0  0  0  0  0  0  0  0  0  0  0  0
  1  2  1  0  0  0  0
  2  3  1  0  0  0  0
  2  5  1  0  0  0  0
  3  4  1  0  0  0  0
  5  6  4  0  0  0  0
  5 10  4  0  0  0  0
  6  7  4  0  0  0  0
  7  8  4  0  0  0  0
  8  9  4  0  0  0  0
  9 10  4  0  0  0  0
 10 11  1  0  0  0  0
 11 12  4  0  0  0  0
 11 15  4  0  0  0  0
 12 13  1  0  0  0  0
 12 68  4  0  0  0  0
 13 14  1  0  0  0  0
 15 16  1  0  0  0  0
 15 67  4  0  0  0  0
 16 17  1  0  0  0  0
 17 18  1  0  0  0  0
 17 19  1  0  0  0  0
 17 20  1  0  0  0  0
 20 21  1  0  0  0  0
 21 22  1  0  0  0  0
 22 23  1  0  0  0  0
 22 66  2  0  0  0  0
 23 24  1  0  0  0  0
 23 65  1  0  0  0  0
 24 25  1  0  0  0  0
 25 26  1  0  0  0  0
 25 63  1  0  0  0  0
 26 27  1  0  0  0  0
 26 62  2  0  0  0  0
 27 28  1  0  0  0  0
 27 55  1  0  0  0  0
 28 29  1  0  0  0  0
 29 30  1  0  0  0  0
 29 54  2  0  0  0  0
 30 31  1  0  0  0  0
 30 34  1  0  0  0  0
 31 32  1  0  0  0  0
 31 33  1  0  0  0  0
 34 35  1  0  0  0  0
 34 53  1  0  0  0  0
 35 36  1  0  0  0  0
 35 52  2  0  0  0  0
 36 37  1  0  0  0  0
 36 51  1  0  0  0  0
 36 73  1  0  0  0  0
 37 38  1  0  0  0  0
 38 39  1  0  0  0  0
 39 40  1  0  0  0  0
 39 50  1  0  0  0  0
 40 41  1  0  0  0  0
 40 49  2  0  0  0  0
 41 42  1  0  0  0  0
 42 43  1  0  0  0  0
 43 44  1  0  0  0  0
 43 47  1  0  0  0  0
 43 48  1  0  0  0  0
 44 45  1  0  0  0  0
 44 46  1  0  0  0  0
 50 51  1  0  0  0  0
 55 56  1  0  0  0  0
 56 57  1  0  0  0  0
 56 61  1  0  0  0  0
 57 58  1  0  0  0  0
 58 59  1  0  0  0  0
 58 71  1  0  0  0  0
 59 60  1  0  0  0  0
 60 61  1  0  0  0  0
 63 64  1  0  0  0  0
 64 65  1  0  0  0  0
 67 68  4  0  0  0  0
 67 72  4  0  0  0  0
 68 69  4  0  0  0  0
 69 70  4  0  0  0  0
 70 71  4  0  0  0  0
 71 72  4  0  0  0  0
M  END
$$$$
