mol_ETKDG4_231
  PyMOL3.1          3D                             0

 73 79  0  0  0  0  0  0  0  0999 V2000
    4.5964    0.4711   -1.1410 C   0  0  0  0  0  0  0  0  0  0  0  0
    3.6007   -0.6048   -1.3794 C   0  0  0  0  0  0  0  0  0  0  0  0
    2.9079   -0.4724   -2.6179 O   0  0  0  0  0  0  0  0  0  0  0  0
    1.8461    0.4471   -2.6726 C   0  0  0  0  0  0  0  0  0  0  0  0
    4.2043   -1.9650   -1.3745 C   0  0  0  0  0  0  0  0  0  0  0  0
    4.9036   -2.3214   -2.4326 N   0  0  0  0  0  0  0  0  0  0  0  0
    5.4957   -3.5295   -2.5089 C   0  0  0  0  0  0  0  0  0  0  0  0
    5.4054   -4.4592   -1.4636 C   0  0  0  0  0  0  0  0  0  0  0  0
    4.6797   -4.0978   -0.3270 C   0  0  0  0  0  0  0  0  0  0  0  0
    4.0833   -2.8404   -0.2839 C   0  0  0  0  0  0  0  0  0  0  0  0
    3.2878   -2.4789    0.8717 C   0  0  0  0  0  0  0  0  0  0  0  0
    3.7436   -1.7810    1.9301 N   0  0  0  0  0  0  0  0  0  0  0  0
    5.1604   -1.3713    2.2088 C   0  0  0  0  0  0  0  0  0  0  0  0
    5.8098   -2.2897    3.1856 C   0  0  0  0  0  0  0  0  0  0  0  0
    1.9250   -2.7537    1.0336 C   0  0  0  0  0  0  0  0  0  0  0  0
    1.1877   -3.6905    0.2348 C   0  0  0  0  0  0  0  0  0  0  0  0
    0.0066   -3.4323   -0.6399 C   0  0  0  0  0  0  0  0  0  0  0  0
    0.2624   -3.7418   -2.1259 C   0  0  0  0  0  0  0  0  0  0  0  0
   -0.5260   -2.0624   -0.5790 C   0  0  0  0  0  0  0  0  0  0  0  0
   -0.8538   -4.4539   -0.1254 C   0  0  0  0  0  0  0  0  0  0  0  0
   -2.0908   -4.1592    0.6527 O   0  0  0  0  0  0  0  0  0  0  0  0
   -2.9970   -5.1737    1.0761 C   0  0  0  0  0  0  0  0  0  0  0  0
   -4.3418   -4.7454    1.6028 C   0  0  0  0  0  0  0  0  0  0  0  0
   -4.6548   -3.4520    1.0859 N   0  0  0  0  0  0  0  0  0  0  0  0
   -5.9012   -2.9102    1.3584 N   0  0  0  0  0  0  0  0  0  0  0  0
   -6.0183   -1.6670    1.8891 C   0  0  0  0  0  0  0  0  0  0  0  0
   -4.7681   -0.9461    2.2894 C   0  0  0  0  0  0  0  0  0  0  0  0
   -4.8149    0.4749    1.9916 N   0  0  0  0  0  0  0  0  0  0  0  0
   -4.0862    1.0466    1.0153 C   0  0  0  0  0  0  0  0  0  0  0  0
   -4.1140    2.5376    0.9690 C   0  0  0  0  0  0  0  0  0  0  0  0
   -5.0547    3.1035   -0.1454 C   0  0  0  0  0  0  0  0  0  0  0  0
   -5.1678    4.5932   -0.1080 C   0  0  0  0  0  0  0  0  0  0  0  0
   -6.4029    2.4378   -0.1335 C   0  0  0  0  0  0  0  0  0  0  0  0
   -2.7146    2.9680    0.8344 N   0  0  0  0  0  0  0  0  0  0  0  0
   -1.9260    3.0585    1.9715 C   0  0  0  0  0  0  0  0  0  0  0  0
   -0.4593    3.4261    1.9877 C   0  0  0  0  0  0  0  0  0  0  0  0
    0.0969    3.7293    3.3890 C   0  0  0  0  0  0  0  0  0  0  0  0
    1.5678    3.9838    3.3700 C   0  0  0  0  0  0  0  0  0  0  0  0
    2.2992    2.9640    2.5950 N   0  0  0  0  0  0  0  0  0  0  0  0
    3.4795    2.3920    2.9594 C   0  0  0  0  0  0  0  0  0  0  0  0
    4.0170    2.3901    4.2433 C   0  0  0  0  0  0  0  0  0  0  0  0
    4.6225    2.2767    5.2510 C   0  0  0  0  0  0  0  0  0  0  0  0
    5.1991    2.1877    6.5353 C   0  0  0  0  0  0  0  0  0  0  0  0
    4.8681    3.3215    7.3007 N   0  0  0  0  0  0  0  0  0  0  0  0
    3.5431    3.5303    7.6822 C   0  0  0  0  0  0  0  0  0  0  0  0
    5.8308    4.2136    7.7989 C   0  0  0  0  0  0  0  0  0  0  0  0
    4.6992    0.9342    7.2638 C   0  0  0  0  0  0  0  0  0  0  0  0
    6.6946    2.0482    6.4254 C   0  0  0  0  0  0  0  0  0  0  0  0
    4.1110    1.7696    2.0808 O   0  0  0  0  0  0  0  0  0  0  0  0
    1.7436    2.5686    1.3474 C   0  0  0  0  0  0  0  0  0  0  0  0
    0.3171    2.2461    1.4348 C   0  0  0  0  0  0  0  0  0  0  0  0
   -2.4710    2.7958    3.0614 O   0  0  0  0  0  0  0  0  0  0  0  0
   -2.1606    3.1636   -0.5169 C   0  0  0  0  0  0  0  0  0  0  0  0
   -3.3649    0.3746    0.3022 O   0  0  0  0  0  0  0  0  0  0  0  0
   -4.5724   -1.1563    3.8308 C   0  0  0  0  0  0  0  0  0  0  0  0
   -3.3164   -0.5135    4.4301 C   0  0  0  0  0  0  0  0  0  0  0  0
   -2.1677   -1.3712    4.0423 C   0  0  0  0  0  0  0  0  0  0  0  0
   -0.9505   -0.9582    4.6707 N   0  0  0  0  0  0  0  0  0  0  0  0
   -1.0274   -0.7603    6.1211 C   0  0  0  0  0  0  0  0  0  0  0  0
   -2.2815    0.0270    6.5149 C   0  0  0  0  0  0  0  0  0  0  0  0
   -3.4740   -0.5228    5.8744 O   0  0  0  0  0  0  0  0  0  0  0  0
   -7.1232   -1.1426    2.0997 O   0  0  0  0  0  0  0  0  0  0  0  0
   -7.0545   -3.7175    0.9663 C   0  0  0  0  0  0  0  0  0  0  0  0
   -6.8646   -5.1508    1.4954 C   0  0  0  0  0  0  0  0  0  0  0  0
   -5.4824   -5.7167    1.1686 C   0  0  0  0  0  0  0  0  0  0  0  0
   -2.7704   -6.4163    1.0645 O   0  0  0  0  0  0  0  0  0  0  0  0
    1.5586   -2.0921    2.2307 C   0  0  0  0  0  0  0  0  0  0  0  0
    2.7102   -1.5354    2.7527 C   0  0  0  0  0  0  0  0  0  0  0  0
    2.6583   -0.8383    4.0013 C   0  0  0  0  0  0  0  0  0  0  0  0
    1.4171   -0.6700    4.5914 C   0  0  0  0  0  0  0  0  0  0  0  0
    0.2617   -1.1885    4.0395 C   0  0  0  0  0  0  0  0  0  0  0  0
    0.3123   -1.9295    2.8352 C   0  0  0  0  0  0  0  0  0  0  0  0
   -0.2483    4.5540    1.2153 F   0  0  0  0  0  0  0  0  0  0  0  0
  1  2  1  0  0  0  0
  2  3  1  0  0  0  0
  2  5  1  0  0  0  0
  3  4  1  0  0  0  0
  5  6  4  0  0  0  0
  5 10  4  0  0  0  0
  6  7  4  0  0  0  0
  7  8  4  0  0  0  0
  8  9  4  0  0  0  0
  9 10  4  0  0  0  0
 10 11  1  0  0  0  0
 11 12  4  0  0  0  0
 11 15  4  0  0  0  0
 12 13  1  0  0  0  0
 12 68  4  0  0  0  0
 13 14  1  0  0  0  0
 15 16  1  0  0  0  0
 15 67  4  0  0  0  0
 16 17  1  0  0  0  0
 17 18  1  0  0  0  0
 17 19  1  0  0  0  0
 17 20  1  0  0  0  0
 20 21  1  0  0  0  0
 21 22  1  0  0  0  0
 22 23  1  0  0  0  0
 22 66  2  0  0  0  0
 23 24  1  0  0  0  0
 23 65  1  0  0  0  0
 24 25  1  0  0  0  0
 25 26  1  0  0  0  0
 25 63  1  0  0  0  0
 26 27  1  0  0  0  0
 26 62  2  0  0  0  0
 27 28  1  0  0  0  0
 27 55  1  0  0  0  0
 28 29  1  0  0  0  0
 29 30  1  0  0  0  0
 29 54  2  0  0  0  0
 30 31  1  0  0  0  0
 30 34  1  0  0  0  0
 31 32  1  0  0  0  0
 31 33  1  0  0  0  0
 34 35  1  0  0  0  0
 34 53  1  0  0  0  0
 35 36  1  0  0  0  0
 35 52  2  0  0  0  0
 36 37  1  0  0  0  0
 36 51  1  0  0  0  0
 36 73  1  0  0  0  0
 37 38  1  0  0  0  0
 38 39  1  0  0  0  0
 39 40  1  0  0  0  0
 39 50  1  0  0  0  0
 40 41  1  0  0  0  0
 40 49  2  0  0  0  0
 41 42  1  0  0  0  0
 42 43  1  0  0  0  0
 43 44  1  0  0  0  0
 43 47  1  0  0  0  0
 43 48  1  0  0  0  0
 44 45  1  0  0  0  0
 44 46  1  0  0  0  0
 50 51  1  0  0  0  0
 55 56  1  0  0  0  0
 56 57  1  0  0  0  0
 56 61  1  0  0  0  0
 57 58  1  0  0  0  0
 58 59  1  0  0  0  0
 58 71  1  0  0  0  0
 59 60  1  0  0  0  0
 60 61  1  0  0  0  0
 63 64  1  0  0  0  0
 64 65  1  0  0  0  0
 67 68  4  0  0  0  0
 67 72  4  0  0  0  0
 68 69  4  0  0  0  0
 69 70  4  0  0  0  0
 70 71  4  0  0  0  0
 71 72  4  0  0  0  0
M  END
$$$$
