mol_bioactive_28
  PyMOL3.1          3D                             0

 73 79  0  0  0  0  0  0  0  0999 V2000
   -0.7841    5.3173   -2.6393 C   0  0  0  0  0  0  0  0  0  0  0  0
    0.3109    4.8692   -3.5129 C   0  0  0  0  0  0  0  0  0  0  0  0
    0.3058    3.4927   -3.8365 O   0  0  0  0  0  0  0  0  0  0  0  0
   -0.8368    2.8524   -4.3371 C   0  0  0  0  0  0  0  0  0  0  0  0
    1.6855    5.1502   -3.0761 C   0  0  0  0  0  0  0  0  0  0  0  0
    2.2084    5.8125   -4.0866 N   0  0  0  0  0  0  0  0  0  0  0  0
    3.4014    6.3653   -4.0337 C   0  0  0  0  0  0  0  0  0  0  0  0
    4.1684    6.3053   -2.8894 C   0  0  0  0  0  0  0  0  0  0  0  0
    3.6704    5.6150   -1.7796 C   0  0  0  0  0  0  0  0  0  0  0  0
    2.4209    5.0170   -1.8669 C   0  0  0  0  0  0  0  0  0  0  0  0
    1.9717    4.2594   -0.7195 C   0  0  0  0  0  0  0  0  0  0  0  0
    1.3272    4.8161    0.3442 N   0  0  0  0  0  0  0  0  0  0  0  0
    0.9325    6.2561    0.5453 C   0  0  0  0  0  0  0  0  0  0  0  0
    1.7905    6.9646    1.5033 C   0  0  0  0  0  0  0  0  0  0  0  0
    2.1085    2.8482   -0.5464 C   0  0  0  0  0  0  0  0  0  0  0  0
    2.6789    1.7686   -1.4319 C   0  0  0  0  0  0  0  0  0  0  0  0
    4.2415    1.4662   -1.3318 C   0  0  0  0  0  0  0  0  0  0  0  0
    5.0538    2.5214   -2.0757 C   0  0  0  0  0  0  0  0  0  0  0  0
    4.4796    0.1910   -2.0788 C   0  0  0  0  0  0  0  0  0  0  0  0
    4.8101    1.3329    0.0966 C   0  0  0  0  0  0  0  0  0  0  0  0
    4.8898   -0.0506    0.6900 O   0  0  0  0  0  0  0  0  0  0  0  0
    5.9486   -0.5189    1.5392 C   0  0  0  0  0  0  0  0  0  0  0  0
    5.8606   -1.9433    2.0905 C   0  0  0  0  0  0  0  0  0  0  0  0
    4.9825   -2.7243    1.2786 N   0  0  0  0  0  0  0  0  0  0  0  0
    4.7949   -4.0651    1.5603 N   0  0  0  0  0  0  0  0  0  0  0  0
    3.5295   -4.5798    1.7129 C   0  0  0  0  0  0  0  0  0  0  0  0
    2.3504   -3.6343    1.7204 C   0  0  0  0  0  0  0  0  0  0  0  0
    1.1976   -4.1746    0.9891 N   0  0  0  0  0  0  0  0  0  0  0  0
    0.8581   -3.8570   -0.2783 C   0  0  0  0  0  0  0  0  0  0  0  0
   -0.4503   -4.3942   -0.7745 C   0  0  0  0  0  0  0  0  0  0  0  0
   -0.3018   -5.5789   -1.7885 C   0  0  0  0  0  0  0  0  0  0  0  0
   -1.6130   -6.1402   -2.2377 C   0  0  0  0  0  0  0  0  0  0  0  0
    0.6108   -6.6612   -1.2585 C   0  0  0  0  0  0  0  0  0  0  0  0
   -1.2060   -3.2405   -1.2924 N   0  0  0  0  0  0  0  0  0  0  0  0
   -1.9365   -2.4634   -0.3984 C   0  0  0  0  0  0  0  0  0  0  0  0
   -2.6556   -1.1645   -0.7407 C   0  0  0  0  0  0  0  0  0  0  0  0
   -3.6721   -0.7378    0.3306 C   0  0  0  0  0  0  0  0  0  0  0  0
   -4.2327    0.6392    0.0685 C   0  0  0  0  0  0  0  0  0  0  0  0
   -3.1564    1.6147   -0.1862 N   0  0  0  0  0  0  0  0  0  0  0  0
   -3.0144    2.8231    0.4675 C   0  0  0  0  0  0  0  0  0  0  0  0
   -3.4859    3.0615    1.7505 C   0  0  0  0  0  0  0  0  0  0  0  0
   -3.8459    3.4081    2.8118 C   0  0  0  0  0  0  0  0  0  0  0  0
   -4.3193    3.6411    4.1379 C   0  0  0  0  0  0  0  0  0  0  0  0
   -4.3824    5.0513    4.4057 N   0  0  0  0  0  0  0  0  0  0  0  0
   -5.4447    5.8113    3.8554 C   0  0  0  0  0  0  0  0  0  0  0  0
   -3.2176    5.7647    4.7737 C   0  0  0  0  0  0  0  0  0  0  0  0
   -5.6922    3.0093    4.2869 C   0  0  0  0  0  0  0  0  0  0  0  0
   -3.4183    2.9536    5.1364 C   0  0  0  0  0  0  0  0  0  0  0  0
   -2.3786    3.7380   -0.0743 O   0  0  0  0  0  0  0  0  0  0  0  0
   -2.1887    1.2437   -1.1695 C   0  0  0  0  0  0  0  0  0  0  0  0
   -1.5814   -0.0876   -0.8370 C   0  0  0  0  0  0  0  0  0  0  0  0
   -1.9670   -2.8412    0.7816 O   0  0  0  0  0  0  0  0  0  0  0  0
   -1.0499   -2.8703   -2.7110 C   0  0  0  0  0  0  0  0  0  0  0  0
    1.5335   -3.0762   -0.9133 O   0  0  0  0  0  0  0  0  0  0  0  0
    1.9391   -3.3833    3.2218 C   0  0  0  0  0  0  0  0  0  0  0  0
    1.2473   -2.1056    3.7592 C   0  0  0  0  0  0  0  0  0  0  0  0
    1.2462   -0.9798    2.8276 C   0  0  0  0  0  0  0  0  0  0  0  0
    0.4841    0.1714    3.2436 N   0  0  0  0  0  0  0  0  0  0  0  0
   -0.3985    0.0721    4.3736 C   0  0  0  0  0  0  0  0  0  0  0  0
   -0.7477   -1.2962    4.8313 C   0  0  0  0  0  0  0  0  0  0  0  0
   -0.0849   -2.4315    4.2193 O   0  0  0  0  0  0  0  0  0  0  0  0
    3.3379   -5.7855    1.9246 O   0  0  0  0  0  0  0  0  0  0  0  0
    6.0139   -4.8787    1.6145 C   0  0  0  0  0  0  0  0  0  0  0  0
    7.0753   -4.1641    2.4831 C   0  0  0  0  0  0  0  0  0  0  0  0
    7.2367   -2.6813    2.1491 C   0  0  0  0  0  0  0  0  0  0  0  0
    6.9364    0.1628    1.8358 O   0  0  0  0  0  0  0  0  0  0  0  0
    1.5054    2.6153    0.6972 C   0  0  0  0  0  0  0  0  0  0  0  0
    1.0457    3.8348    1.2115 C   0  0  0  0  0  0  0  0  0  0  0  0
    0.3702    3.8407    2.4737 C   0  0  0  0  0  0  0  0  0  0  0  0
    0.2069    2.6079    3.1256 C   0  0  0  0  0  0  0  0  0  0  0  0
    0.6638    1.3939    2.5837 C   0  0  0  0  0  0  0  0  0  0  0  0
    1.3194    1.4001    1.3508 C   0  0  0  0  0  0  0  0  0  0  0  0
   -3.3435   -1.2782   -1.9319 F   0  0  0  0  0  0  0  0  0  0  0  0
  1  2  1  0  0  0  0
  2  3  1  0  0  0  0
  2  5  1  0  0  0  0
  3  4  1  0  0  0  0
  5  6  4  0  0  0  0
  5 10  4  0  0  0  0
  6  7  4  0  0  0  0
  7  8  4  0  0  0  0
  8  9  4  0  0  0  0
  9 10  4  0  0  0  0
 10 11  1  0  0  0  0
 11 12  4  0  0  0  0
 11 15  4  0  0  0  0
 12 13  1  0  0  0  0
 12 68  4  0  0  0  0
 13 14  1  0  0  0  0
 15 16  1  0  0  0  0
 15 67  4  0  0  0  0
 16 17  1  0  0  0  0
 17 18  1  0  0  0  0
 17 19  1  0  0  0  0
 17 20  1  0  0  0  0
 20 21  1  0  0  0  0
 21 22  1  0  0  0  0
 22 23  1  0  0  0  0
 22 66  2  0  0  0  0
 23 24  1  0  0  0  0
 23 65  1  0  0  0  0
 24 25  1  0  0  0  0
 25 26  1  0  0  0  0
 25 63  1  0  0  0  0
 26 27  1  0  0  0  0
 26 62  2  0  0  0  0
 27 28  1  0  0  0  0
 27 55  1  0  0  0  0
 28 29  1  0  0  0  0
 29 30  1  0  0  0  0
 29 54  2  0  0  0  0
 30 31  1  0  0  0  0
 30 34  1  0  0  0  0
 31 32  1  0  0  0  0
 31 33  1  0  0  0  0
 34 35  1  0  0  0  0
 34 53  1  0  0  0  0
 35 36  1  0  0  0  0
 35 52  2  0  0  0  0
 36 37  1  0  0  0  0
 36 51  1  0  0  0  0
 36 73  1  0  0  0  0
 37 38  1  0  0  0  0
 38 39  1  0  0  0  0
 39 40  1  0  0  0  0
 39 50  1  0  0  0  0
 40 41  1  0  0  0  0
 40 49  2  0  0  0  0
 41 42  1  0  0  0  0
 42 43  1  0  0  0  0
 43 44  1  0  0  0  0
 43 47  1  0  0  0  0
 43 48  1  0  0  0  0
 44 45  1  0  0  0  0
 44 46  1  0  0  0  0
 50 51  1  0  0  0  0
 55 56  1  0  0  0  0
 56 57  1  0  0  0  0
 56 61  1  0  0  0  0
 57 58  1  0  0  0  0
 58 59  1  0  0  0  0
 58 71  1  0  0  0  0
 59 60  1  0  0  0  0
 60 61  1  0  0  0  0
 63 64  1  0  0  0  0
 64 65  1  0  0  0  0
 67 68  4  0  0  0  0
 67 72  4  0  0  0  0
 68 69  4  0  0  0  0
 69 70  4  0  0  0  0
 70 71  4  0  0  0  0
 71 72  4  0  0  0  0
M  END
$$$$
