mol_ETKDG4_234
  PyMOL3.1          3D                             0

 73 79  0  0  0  0  0  0  0  0999 V2000
   -1.1887    5.1647   -6.8341 C   0  0  0  0  0  0  0  0  0  0  0  0
   -1.0431    5.3948   -5.3877 C   0  0  0  0  0  0  0  0  0  0  0  0
   -0.5267    6.6426   -4.9932 O   0  0  0  0  0  0  0  0  0  0  0  0
    0.7931    6.9662   -5.3555 C   0  0  0  0  0  0  0  0  0  0  0  0
   -2.2751    5.1319   -4.6115 C   0  0  0  0  0  0  0  0  0  0  0  0
   -3.1849    6.0844   -4.5119 N   0  0  0  0  0  0  0  0  0  0  0  0
   -4.3483    5.8866   -3.8436 C   0  0  0  0  0  0  0  0  0  0  0  0
   -4.6425    4.6701   -3.2323 C   0  0  0  0  0  0  0  0  0  0  0  0
   -3.6927    3.6565   -3.3380 C   0  0  0  0  0  0  0  0  0  0  0  0
   -2.5096    3.9046   -4.0444 C   0  0  0  0  0  0  0  0  0  0  0  0
   -1.5116    2.8527   -4.1065 C   0  0  0  0  0  0  0  0  0  0  0  0
   -1.5584    1.7748   -4.9236 N   0  0  0  0  0  0  0  0  0  0  0  0
   -2.6172    1.4498   -5.9268 C   0  0  0  0  0  0  0  0  0  0  0  0
   -2.1930    1.6459   -7.3230 C   0  0  0  0  0  0  0  0  0  0  0  0
   -0.3709    2.7936   -3.3146 C   0  0  0  0  0  0  0  0  0  0  0  0
   -0.0269    3.8236   -2.4076 C   0  0  0  0  0  0  0  0  0  0  0  0
    0.7886    4.0318   -1.2553 C   0  0  0  0  0  0  0  0  0  0  0  0
    0.2803    5.2326   -0.4275 C   0  0  0  0  0  0  0  0  0  0  0  0
    0.7850    2.8530   -0.3511 C   0  0  0  0  0  0  0  0  0  0  0  0
    2.0791    4.3390   -1.8310 C   0  0  0  0  0  0  0  0  0  0  0  0
    3.3087    3.7936   -1.2379 O   0  0  0  0  0  0  0  0  0  0  0  0
    4.5686    4.4140   -1.2825 C   0  0  0  0  0  0  0  0  0  0  0  0
    5.6901    3.7349   -0.5390 C   0  0  0  0  0  0  0  0  0  0  0  0
    5.1510    2.9906    0.5572 N   0  0  0  0  0  0  0  0  0  0  0  0
    6.0321    2.3193    1.3756 N   0  0  0  0  0  0  0  0  0  0  0  0
    5.9037    0.9738    1.5700 C   0  0  0  0  0  0  0  0  0  0  0  0
    4.8187    0.2551    0.8207 C   0  0  0  0  0  0  0  0  0  0  0  0
    4.1557   -0.7543    1.6120 N   0  0  0  0  0  0  0  0  0  0  0  0
    2.9875   -0.5725    2.2345 C   0  0  0  0  0  0  0  0  0  0  0  0
    2.3861   -1.7812    2.8613 C   0  0  0  0  0  0  0  0  0  0  0  0
    2.6293   -1.9145    4.3930 C   0  0  0  0  0  0  0  0  0  0  0  0
    2.3462   -3.2801    4.9159 C   0  0  0  0  0  0  0  0  0  0  0  0
    3.9298   -1.3557    4.8498 C   0  0  0  0  0  0  0  0  0  0  0  0
    0.9689   -1.7823    2.5163 N   0  0  0  0  0  0  0  0  0  0  0  0
    0.5876   -2.2829    1.2994 C   0  0  0  0  0  0  0  0  0  0  0  0
   -0.8313   -2.3478    0.8063 C   0  0  0  0  0  0  0  0  0  0  0  0
   -1.0645   -3.5395   -0.1094 C   0  0  0  0  0  0  0  0  0  0  0  0
   -2.4195   -3.5395   -0.6505 C   0  0  0  0  0  0  0  0  0  0  0  0
   -2.8319   -2.2372   -1.1721 N   0  0  0  0  0  0  0  0  0  0  0  0
   -3.5667   -2.1709   -2.3034 C   0  0  0  0  0  0  0  0  0  0  0  0
   -4.8124   -1.5681   -2.1680 C   0  0  0  0  0  0  0  0  0  0  0  0
   -5.9399   -1.2897   -2.0117 C   0  0  0  0  0  0  0  0  0  0  0  0
   -7.2175   -0.8782   -1.5583 C   0  0  0  0  0  0  0  0  0  0  0  0
   -7.5781   -1.5728   -0.3503 N   0  0  0  0  0  0  0  0  0  0  0  0
   -7.2988   -2.9447   -0.2858 C   0  0  0  0  0  0  0  0  0  0  0  0
   -8.5453   -1.0598    0.5336 C   0  0  0  0  0  0  0  0  0  0  0  0
   -7.1869    0.6177   -1.3128 C   0  0  0  0  0  0  0  0  0  0  0  0
   -8.2815   -1.1614   -2.5995 C   0  0  0  0  0  0  0  0  0  0  0  0
   -3.2265   -2.7247   -3.3401 O   0  0  0  0  0  0  0  0  0  0  0  0
   -2.5052   -1.0539   -0.4275 C   0  0  0  0  0  0  0  0  0  0  0  0
   -1.1348   -1.0444    0.0761 C   0  0  0  0  0  0  0  0  0  0  0  0
    1.4882   -2.6955    0.5440 O   0  0  0  0  0  0  0  0  0  0  0  0
    0.0223   -1.1256    3.4273 C   0  0  0  0  0  0  0  0  0  0  0  0
    2.4073    0.5001    2.1718 O   0  0  0  0  0  0  0  0  0  0  0  0
    5.4399   -0.4081   -0.4577 C   0  0  0  0  0  0  0  0  0  0  0  0
    4.4854   -1.2070   -1.3647 C   0  0  0  0  0  0  0  0  0  0  0  0
    3.7629   -0.2349   -2.2192 C   0  0  0  0  0  0  0  0  0  0  0  0
    2.9564   -0.8859   -3.2258 N   0  0  0  0  0  0  0  0  0  0  0  0
    3.6523   -1.9012   -4.0164 C   0  0  0  0  0  0  0  0  0  0  0  0
    4.4766   -2.8315   -3.1278 C   0  0  0  0  0  0  0  0  0  0  0  0
    5.3036   -2.0799   -2.1911 O   0  0  0  0  0  0  0  0  0  0  0  0
    6.6907    0.3385    2.2836 O   0  0  0  0  0  0  0  0  0  0  0  0
    7.0382    3.1507    2.0289 C   0  0  0  0  0  0  0  0  0  0  0  0
    7.7297    4.0168    0.9527 C   0  0  0  0  0  0  0  0  0  0  0  0
    6.7396    4.7254    0.0363 C   0  0  0  0  0  0  0  0  0  0  0  0
    4.8423    5.4696   -1.9012 O   0  0  0  0  0  0  0  0  0  0  0  0
    0.2692    1.5819   -3.6943 C   0  0  0  0  0  0  0  0  0  0  0  0
   -0.4870    1.0009   -4.6880 C   0  0  0  0  0  0  0  0  0  0  0  0
   -0.0770   -0.2514   -5.2557 C   0  0  0  0  0  0  0  0  0  0  0  0
    1.0751   -0.8382   -4.7483 C   0  0  0  0  0  0  0  0  0  0  0  0
    1.8205   -0.2502   -3.7255 C   0  0  0  0  0  0  0  0  0  0  0  0
    1.4112    0.9796   -3.1806 C   0  0  0  0  0  0  0  0  0  0  0  0
   -1.7403   -2.4915    1.8233 F   0  0  0  0  0  0  0  0  0  0  0  0
  1  2  1  0  0  0  0
  2  3  1  0  0  0  0
  2  5  1  0  0  0  0
  3  4  1  0  0  0  0
  5  6  4  0  0  0  0
  5 10  4  0  0  0  0
  6  7  4  0  0  0  0
  7  8  4  0  0  0  0
  8  9  4  0  0  0  0
  9 10  4  0  0  0  0
 10 11  1  0  0  0  0
 11 12  4  0  0  0  0
 11 15  4  0  0  0  0
 12 13  1  0  0  0  0
 12 68  4  0  0  0  0
 13 14  1  0  0  0  0
 15 16  1  0  0  0  0
 15 67  4  0  0  0  0
 16 17  1  0  0  0  0
 17 18  1  0  0  0  0
 17 19  1  0  0  0  0
 17 20  1  0  0  0  0
 20 21  1  0  0  0  0
 21 22  1  0  0  0  0
 22 23  1  0  0  0  0
 22 66  2  0  0  0  0
 23 24  1  0  0  0  0
 23 65  1  0  0  0  0
 24 25  1  0  0  0  0
 25 26  1  0  0  0  0
 25 63  1  0  0  0  0
 26 27  1  0  0  0  0
 26 62  2  0  0  0  0
 27 28  1  0  0  0  0
 27 55  1  0  0  0  0
 28 29  1  0  0  0  0
 29 30  1  0  0  0  0
 29 54  2  0  0  0  0
 30 31  1  0  0  0  0
 30 34  1  0  0  0  0
 31 32  1  0  0  0  0
 31 33  1  0  0  0  0
 34 35  1  0  0  0  0
 34 53  1  0  0  0  0
 35 36  1  0  0  0  0
 35 52  2  0  0  0  0
 36 37  1  0  0  0  0
 36 51  1  0  0  0  0
 36 73  1  0  0  0  0
 37 38  1  0  0  0  0
 38 39  1  0  0  0  0
 39 40  1  0  0  0  0
 39 50  1  0  0  0  0
 40 41  1  0  0  0  0
 40 49  2  0  0  0  0
 41 42  1  0  0  0  0
 42 43  1  0  0  0  0
 43 44  1  0  0  0  0
 43 47  1  0  0  0  0
 43 48  1  0  0  0  0
 44 45  1  0  0  0  0
 44 46  1  0  0  0  0
 50 51  1  0  0  0  0
 55 56  1  0  0  0  0
 56 57  1  0  0  0  0
 56 61  1  0  0  0  0
 57 58  1  0  0  0  0
 58 59  1  0  0  0  0
 58 71  1  0  0  0  0
 59 60  1  0  0  0  0
 60 61  1  0  0  0  0
 63 64  1  0  0  0  0
 64 65  1  0  0  0  0
 67 68  4  0  0  0  0
 67 72  4  0  0  0  0
 68 69  4  0  0  0  0
 69 70  4  0  0  0  0
 70 71  4  0  0  0  0
 71 72  4  0  0  0  0
M  END
$$$$
