mol_ETKDG1_87
  PyMOL3.1          3D                             0

 73 79  0  0  0  0  0  0  0  0999 V2000
   -0.3593    5.1587   -0.7685 C   0  0  0  0  0  0  0  0  0  0  0  0
    0.3927    4.0541   -1.4127 C   0  0  0  0  0  0  0  0  0  0  0  0
    0.9267    4.3534   -2.6920 O   0  0  0  0  0  0  0  0  0  0  0  0
    0.0314    4.3149   -3.7796 C   0  0  0  0  0  0  0  0  0  0  0  0
    1.5095    3.5704   -0.5796 C   0  0  0  0  0  0  0  0  0  0  0  0
    2.6178    4.2982   -0.5376 N   0  0  0  0  0  0  0  0  0  0  0  0
    3.6561    3.9521    0.2561 C   0  0  0  0  0  0  0  0  0  0  0  0
    3.6057    2.8156    1.0721 C   0  0  0  0  0  0  0  0  0  0  0  0
    2.4425    2.0368    1.0456 C   0  0  0  0  0  0  0  0  0  0  0  0
    1.3978    2.4165    0.1831 C   0  0  0  0  0  0  0  0  0  0  0  0
    0.2334    1.5684    0.1124 C   0  0  0  0  0  0  0  0  0  0  0  0
   -0.7690    1.6074    1.0193 N   0  0  0  0  0  0  0  0  0  0  0  0
   -0.9042    2.5403    2.1937 C   0  0  0  0  0  0  0  0  0  0  0  0
   -0.6541    1.9109    3.4817 C   0  0  0  0  0  0  0  0  0  0  0  0
   -0.0670    0.6479   -0.9293 C   0  0  0  0  0  0  0  0  0  0  0  0
    0.6477    0.3314   -2.2185 C   0  0  0  0  0  0  0  0  0  0  0  0
    1.7677   -0.7917   -2.1131 C   0  0  0  0  0  0  0  0  0  0  0  0
    2.9582   -0.3467   -1.2771 C   0  0  0  0  0  0  0  0  0  0  0  0
    2.3402   -0.9934   -3.4869 C   0  0  0  0  0  0  0  0  0  0  0  0
    1.2128   -2.1008   -1.5467 C   0  0  0  0  0  0  0  0  0  0  0  0
    0.5843   -3.0109   -2.5969 O   0  0  0  0  0  0  0  0  0  0  0  0
    0.9487   -4.3812   -2.7942 C   0  0  0  0  0  0  0  0  0  0  0  0
    0.2452   -5.2013   -3.8730 C   0  0  0  0  0  0  0  0  0  0  0  0
   -0.3271   -4.3381   -4.8722 N   0  0  0  0  0  0  0  0  0  0  0  0
   -0.9705   -4.9441   -5.9533 N   0  0  0  0  0  0  0  0  0  0  0  0
   -2.2649   -4.6348   -6.2902 C   0  0  0  0  0  0  0  0  0  0  0  0
   -3.0053   -3.6213   -5.4654 C   0  0  0  0  0  0  0  0  0  0  0  0
   -3.8621   -2.7812   -6.2822 N   0  0  0  0  0  0  0  0  0  0  0  0
   -3.5096   -1.5435   -6.6923 C   0  0  0  0  0  0  0  0  0  0  0  0
   -4.5690   -0.7449   -7.3800 C   0  0  0  0  0  0  0  0  0  0  0  0
   -4.3918   -0.6479   -8.9378 C   0  0  0  0  0  0  0  0  0  0  0  0
   -5.5903   -0.0538   -9.6142 C   0  0  0  0  0  0  0  0  0  0  0  0
   -3.9760   -1.9524   -9.5586 C   0  0  0  0  0  0  0  0  0  0  0  0
   -4.5739    0.5696   -6.7285 N   0  0  0  0  0  0  0  0  0  0  0  0
   -5.2353    0.6976   -5.5341 C   0  0  0  0  0  0  0  0  0  0  0  0
   -5.2609    1.9418   -4.6881 C   0  0  0  0  0  0  0  0  0  0  0  0
   -6.3643    1.8891   -3.6254 C   0  0  0  0  0  0  0  0  0  0  0  0
   -6.2799    3.0590   -2.6968 C   0  0  0  0  0  0  0  0  0  0  0  0
   -4.9131    3.1664   -2.1527 N   0  0  0  0  0  0  0  0  0  0  0  0
   -4.6436    3.1790   -0.8154 C   0  0  0  0  0  0  0  0  0  0  0  0
   -5.5705    2.7557    0.1176 C   0  0  0  0  0  0  0  0  0  0  0  0
   -6.3179    2.4646    0.9545 C   0  0  0  0  0  0  0  0  0  0  0  0
   -7.3362    2.0666    1.8587 C   0  0  0  0  0  0  0  0  0  0  0  0
   -7.9486    3.2277    2.4180 N   0  0  0  0  0  0  0  0  0  0  0  0
   -7.3379    3.8899    3.5035 C   0  0  0  0  0  0  0  0  0  0  0  0
   -8.9836    3.8972    1.7370 C   0  0  0  0  0  0  0  0  0  0  0  0
   -8.3534    1.2118    1.1220 C   0  0  0  0  0  0  0  0  0  0  0  0
   -6.7693    1.1948    2.9573 C   0  0  0  0  0  0  0  0  0  0  0  0
   -3.5195    3.5301   -0.4164 O   0  0  0  0  0  0  0  0  0  0  0  0
   -3.8397    3.2175   -3.1063 C   0  0  0  0  0  0  0  0  0  0  0  0
   -3.9057    2.0156   -3.9956 C   0  0  0  0  0  0  0  0  0  0  0  0
   -5.8375   -0.3071   -5.1060 O   0  0  0  0  0  0  0  0  0  0  0  0
   -3.7645    1.6621   -7.3088 C   0  0  0  0  0  0  0  0  0  0  0  0
   -2.4174   -1.0861   -6.3989 O   0  0  0  0  0  0  0  0  0  0  0  0
   -3.8755   -4.3466   -4.3672 C   0  0  0  0  0  0  0  0  0  0  0  0
   -4.5595   -3.3891   -3.3470 C   0  0  0  0  0  0  0  0  0  0  0  0
   -3.5338   -2.9632   -2.3568 C   0  0  0  0  0  0  0  0  0  0  0  0
   -4.1003   -2.1579   -1.2963 N   0  0  0  0  0  0  0  0  0  0  0  0
   -5.2704   -2.7505   -0.6287 C   0  0  0  0  0  0  0  0  0  0  0  0
   -6.2632   -3.2984   -1.6597 C   0  0  0  0  0  0  0  0  0  0  0  0
   -5.5971   -4.1401   -2.6646 O   0  0  0  0  0  0  0  0  0  0  0  0
   -2.8498   -5.1967   -7.2296 O   0  0  0  0  0  0  0  0  0  0  0  0
   -0.1466   -5.8662   -6.7403 C   0  0  0  0  0  0  0  0  0  0  0  0
    0.5303   -6.8702   -5.7814 C   0  0  0  0  0  0  0  0  0  0  0  0
    1.2173   -6.1839   -4.6005 C   0  0  0  0  0  0  0  0  0  0  0  0
    1.8266   -4.9664   -2.1239 O   0  0  0  0  0  0  0  0  0  0  0  0
   -1.2944    0.0959   -0.5391 C   0  0  0  0  0  0  0  0  0  0  0  0
   -1.6900    0.7057    0.6493 C   0  0  0  0  0  0  0  0  0  0  0  0
   -2.9414    0.3386    1.2347 C   0  0  0  0  0  0  0  0  0  0  0  0
   -3.7141   -0.6165    0.5558 C   0  0  0  0  0  0  0  0  0  0  0  0
   -3.2990   -1.2111   -0.6434 C   0  0  0  0  0  0  0  0  0  0  0  0
   -2.0694   -0.8486   -1.2101 C   0  0  0  0  0  0  0  0  0  0  0  0
   -5.4855    3.0680   -5.4607 F   0  0  0  0  0  0  0  0  0  0  0  0
  1  2  1  0  0  0  0
  2  3  1  0  0  0  0
  2  5  1  0  0  0  0
  3  4  1  0  0  0  0
  5  6  4  0  0  0  0
  5 10  4  0  0  0  0
  6  7  4  0  0  0  0
  7  8  4  0  0  0  0
  8  9  4  0  0  0  0
  9 10  4  0  0  0  0
 10 11  1  0  0  0  0
 11 12  4  0  0  0  0
 11 15  4  0  0  0  0
 12 13  1  0  0  0  0
 12 68  4  0  0  0  0
 13 14  1  0  0  0  0
 15 16  1  0  0  0  0
 15 67  4  0  0  0  0
 16 17  1  0  0  0  0
 17 18  1  0  0  0  0
 17 19  1  0  0  0  0
 17 20  1  0  0  0  0
 20 21  1  0  0  0  0
 21 22  1  0  0  0  0
 22 23  1  0  0  0  0
 22 66  2  0  0  0  0
 23 24  1  0  0  0  0
 23 65  1  0  0  0  0
 24 25  1  0  0  0  0
 25 26  1  0  0  0  0
 25 63  1  0  0  0  0
 26 27  1  0  0  0  0
 26 62  2  0  0  0  0
 27 28  1  0  0  0  0
 27 55  1  0  0  0  0
 28 29  1  0  0  0  0
 29 30  1  0  0  0  0
 29 54  2  0  0  0  0
 30 31  1  0  0  0  0
 30 34  1  0  0  0  0
 31 32  1  0  0  0  0
 31 33  1  0  0  0  0
 34 35  1  0  0  0  0
 34 53  1  0  0  0  0
 35 36  1  0  0  0  0
 35 52  2  0  0  0  0
 36 37  1  0  0  0  0
 36 51  1  0  0  0  0
 36 73  1  0  0  0  0
 37 38  1  0  0  0  0
 38 39  1  0  0  0  0
 39 40  1  0  0  0  0
 39 50  1  0  0  0  0
 40 41  1  0  0  0  0
 40 49  2  0  0  0  0
 41 42  1  0  0  0  0
 42 43  1  0  0  0  0
 43 44  1  0  0  0  0
 43 47  1  0  0  0  0
 43 48  1  0  0  0  0
 44 45  1  0  0  0  0
 44 46  1  0  0  0  0
 50 51  1  0  0  0  0
 55 56  1  0  0  0  0
 56 57  1  0  0  0  0
 56 61  1  0  0  0  0
 57 58  1  0  0  0  0
 58 59  1  0  0  0  0
 58 71  1  0  0  0  0
 59 60  1  0  0  0  0
 60 61  1  0  0  0  0
 63 64  1  0  0  0  0
 64 65  1  0  0  0  0
 67 68  4  0  0  0  0
 67 72  4  0  0  0  0
 68 69  4  0  0  0  0
 69 70  4  0  0  0  0
 70 71  4  0  0  0  0
 71 72  4  0  0  0  0
M  END
$$$$
