mol_bioactive_40
  PyMOL3.1          3D                             0

 73 79  0  0  0  0  0  0  0  0999 V2000
    5.1240    3.4852   -2.5295 C   0  0  0  0  0  0  0  0  0  0  0  0
    5.2218    2.0281   -2.5411 C   0  0  0  0  0  0  0  0  0  0  0  0
    4.0127    1.3326   -2.8518 O   0  0  0  0  0  0  0  0  0  0  0  0
    3.3124    1.6462   -4.0298 C   0  0  0  0  0  0  0  0  0  0  0  0
    5.6927    1.3740   -1.3236 C   0  0  0  0  0  0  0  0  0  0  0  0
    6.6676    0.5905   -1.7409 N   0  0  0  0  0  0  0  0  0  0  0  0
    7.4219   -0.1004   -0.9156 C   0  0  0  0  0  0  0  0  0  0  0  0
    7.2524   -0.0173    0.4450 C   0  0  0  0  0  0  0  0  0  0  0  0
    6.2368    0.8008    0.9484 C   0  0  0  0  0  0  0  0  0  0  0  0
    5.4271    1.5013    0.0567 C   0  0  0  0  0  0  0  0  0  0  0  0
    4.3663    2.2993    0.6408 C   0  0  0  0  0  0  0  0  0  0  0  0
    4.5746    3.5210    1.1839 N   0  0  0  0  0  0  0  0  0  0  0  0
    5.8496    4.3110    1.1720 C   0  0  0  0  0  0  0  0  0  0  0  0
    6.5181    4.4214    2.4584 C   0  0  0  0  0  0  0  0  0  0  0  0
    2.9901    1.9490    0.7521 C   0  0  0  0  0  0  0  0  0  0  0  0
    2.2220    0.7953    0.1891 C   0  0  0  0  0  0  0  0  0  0  0  0
    2.1675   -0.5278    1.0478 C   0  0  0  0  0  0  0  0  0  0  0  0
    1.2478   -1.4882    0.3325 C   0  0  0  0  0  0  0  0  0  0  0  0
    3.4827   -1.2192    1.0766 C   0  0  0  0  0  0  0  0  0  0  0  0
    1.6777   -0.2877    2.4632 C   0  0  0  0  0  0  0  0  0  0  0  0
    0.2060   -0.4497    2.7210 O   0  0  0  0  0  0  0  0  0  0  0  0
   -0.3595   -1.0440    3.8981 C   0  0  0  0  0  0  0  0  0  0  0  0
   -1.8715   -1.1106    4.0508 C   0  0  0  0  0  0  0  0  0  0  0  0
   -2.5340   -0.6419    2.8722 N   0  0  0  0  0  0  0  0  0  0  0  0
   -3.9237   -0.6577    2.8392 N   0  0  0  0  0  0  0  0  0  0  0  0
   -4.6357    0.4791    2.5345 C   0  0  0  0  0  0  0  0  0  0  0  0
   -3.8893    1.7539    2.2431 C   0  0  0  0  0  0  0  0  0  0  0  0
   -4.5088    2.5308    1.1851 N   0  0  0  0  0  0  0  0  0  0  0  0
   -4.1853    2.4555   -0.1026 C   0  0  0  0  0  0  0  0  0  0  0  0
   -4.7988    3.4761   -1.0201 C   0  0  0  0  0  0  0  0  0  0  0  0
   -5.9760    2.9580   -1.8980 C   0  0  0  0  0  0  0  0  0  0  0  0
   -6.7960    4.0549   -2.4923 C   0  0  0  0  0  0  0  0  0  0  0  0
   -6.7970    1.8924   -1.2596 C   0  0  0  0  0  0  0  0  0  0  0  0
   -3.6851    4.0127   -1.8035 N   0  0  0  0  0  0  0  0  0  0  0  0
   -2.8978    4.9860   -1.2322 C   0  0  0  0  0  0  0  0  0  0  0  0
   -1.6341    5.5398   -1.8461 C   0  0  0  0  0  0  0  0  0  0  0  0
   -0.5504    4.5054   -1.6361 C   0  0  0  0  0  0  0  0  0  0  0  0
    0.7508    4.9355   -2.1963 C   0  0  0  0  0  0  0  0  0  0  0  0
    1.1235    6.2526   -1.6674 N   0  0  0  0  0  0  0  0  0  0  0  0
    2.3783    6.4723   -1.1642 C   0  0  0  0  0  0  0  0  0  0  0  0
    2.6802    7.6286   -0.4478 C   0  0  0  0  0  0  0  0  0  0  0  0
    3.1006    8.5680    0.1100 C   0  0  0  0  0  0  0  0  0  0  0  0
    3.4300    9.7633    0.7730 C   0  0  0  0  0  0  0  0  0  0  0  0
    4.5844   10.3887    0.2022 N   0  0  0  0  0  0  0  0  0  0  0  0
    5.2149   11.4640    0.8296 C   0  0  0  0  0  0  0  0  0  0  0  0
    5.0117   10.0725   -1.1006 C   0  0  0  0  0  0  0  0  0  0  0  0
    3.6709    9.4439    2.2329 C   0  0  0  0  0  0  0  0  0  0  0  0
    2.2500   10.7250    0.6947 C   0  0  0  0  0  0  0  0  0  0  0  0
    3.2657    5.6367   -1.3092 O   0  0  0  0  0  0  0  0  0  0  0  0
    0.1227    7.2753   -1.7090 C   0  0  0  0  0  0  0  0  0  0  0  0
   -1.1879    6.8576   -1.2027 C   0  0  0  0  0  0  0  0  0  0  0  0
   -3.2490    5.4161   -0.1151 O   0  0  0  0  0  0  0  0  0  0  0  0
   -3.3629    3.3904   -3.0994 C   0  0  0  0  0  0  0  0  0  0  0  0
   -3.3235    1.6771   -0.4572 O   0  0  0  0  0  0  0  0  0  0  0  0
   -3.8021    2.6171    3.5482 C   0  0  0  0  0  0  0  0  0  0  0  0
   -2.7023    3.6837    3.7917 C   0  0  0  0  0  0  0  0  0  0  0  0
   -1.5280    3.5385    2.9180 C   0  0  0  0  0  0  0  0  0  0  0  0
   -0.5571    4.5979    3.0127 N   0  0  0  0  0  0  0  0  0  0  0  0
   -0.9044    5.8056    3.7041 C   0  0  0  0  0  0  0  0  0  0  0  0
   -2.3318    6.0329    4.0314 C   0  0  0  0  0  0  0  0  0  0  0  0
   -3.2846    4.9984    3.7204 O   0  0  0  0  0  0  0  0  0  0  0  0
   -5.8748    0.4949    2.5576 O   0  0  0  0  0  0  0  0  0  0  0  0
   -4.5425   -1.9542    3.0970 C   0  0  0  0  0  0  0  0  0  0  0  0
   -3.9170   -2.5986    4.3487 C   0  0  0  0  0  0  0  0  0  0  0  0
   -2.3926   -2.5384    4.3663 C   0  0  0  0  0  0  0  0  0  0  0  0
    0.3139   -1.5093    4.8254 O   0  0  0  0  0  0  0  0  0  0  0  0
    2.4115    3.0221    1.4536 C   0  0  0  0  0  0  0  0  0  0  0  0
    3.4063    3.9592    1.6942 C   0  0  0  0  0  0  0  0  0  0  0  0
    3.0653    5.1726    2.3775 C   0  0  0  0  0  0  0  0  0  0  0  0
    1.7391    5.3420    2.7776 C   0  0  0  0  0  0  0  0  0  0  0  0
    0.7502    4.3926    2.5467 C   0  0  0  0  0  0  0  0  0  0  0  0
    1.0825    3.2130    1.8480 C   0  0  0  0  0  0  0  0  0  0  0  0
   -1.8208    5.8188   -3.1881 F   0  0  0  0  0  0  0  0  0  0  0  0
  1  2  1  0  0  0  0
  2  3  1  0  0  0  0
  2  5  1  0  0  0  0
  3  4  1  0  0  0  0
  5  6  4  0  0  0  0
  5 10  4  0  0  0  0
  6  7  4  0  0  0  0
  7  8  4  0  0  0  0
  8  9  4  0  0  0  0
  9 10  4  0  0  0  0
 10 11  1  0  0  0  0
 11 12  4  0  0  0  0
 11 15  4  0  0  0  0
 12 13  1  0  0  0  0
 12 68  4  0  0  0  0
 13 14  1  0  0  0  0
 15 16  1  0  0  0  0
 15 67  4  0  0  0  0
 16 17  1  0  0  0  0
 17 18  1  0  0  0  0
 17 19  1  0  0  0  0
 17 20  1  0  0  0  0
 20 21  1  0  0  0  0
 21 22  1  0  0  0  0
 22 23  1  0  0  0  0
 22 66  2  0  0  0  0
 23 24  1  0  0  0  0
 23 65  1  0  0  0  0
 24 25  1  0  0  0  0
 25 26  1  0  0  0  0
 25 63  1  0  0  0  0
 26 27  1  0  0  0  0
 26 62  2  0  0  0  0
 27 28  1  0  0  0  0
 27 55  1  0  0  0  0
 28 29  1  0  0  0  0
 29 30  1  0  0  0  0
 29 54  2  0  0  0  0
 30 31  1  0  0  0  0
 30 34  1  0  0  0  0
 31 32  1  0  0  0  0
 31 33  1  0  0  0  0
 34 35  1  0  0  0  0
 34 53  1  0  0  0  0
 35 36  1  0  0  0  0
 35 52  2  0  0  0  0
 36 37  1  0  0  0  0
 36 51  1  0  0  0  0
 36 73  1  0  0  0  0
 37 38  1  0  0  0  0
 38 39  1  0  0  0  0
 39 40  1  0  0  0  0
 39 50  1  0  0  0  0
 40 41  1  0  0  0  0
 40 49  2  0  0  0  0
 41 42  1  0  0  0  0
 42 43  1  0  0  0  0
 43 44  1  0  0  0  0
 43 47  1  0  0  0  0
 43 48  1  0  0  0  0
 44 45  1  0  0  0  0
 44 46  1  0  0  0  0
 50 51  1  0  0  0  0
 55 56  1  0  0  0  0
 56 57  1  0  0  0  0
 56 61  1  0  0  0  0
 57 58  1  0  0  0  0
 58 59  1  0  0  0  0
 58 71  1  0  0  0  0
 59 60  1  0  0  0  0
 60 61  1  0  0  0  0
 63 64  1  0  0  0  0
 64 65  1  0  0  0  0
 67 68  4  0  0  0  0
 67 72  4  0  0  0  0
 68 69  4  0  0  0  0
 69 70  4  0  0  0  0
 70 71  4  0  0  0  0
 71 72  4  0  0  0  0
M  END
$$$$
