mol_ETKDG1_96
  PyMOL3.1          3D                             0

 73 79  0  0  0  0  0  0  0  0999 V2000
    1.2629   -4.3211   -1.3332 C   0  0  0  0  0  0  0  0  0  0  0  0
    1.5694   -2.9948   -1.8849 C   0  0  0  0  0  0  0  0  0  0  0  0
    2.9243   -2.6083   -1.7859 O   0  0  0  0  0  0  0  0  0  0  0  0
    3.4362   -2.3901   -0.4950 C   0  0  0  0  0  0  0  0  0  0  0  0
    1.1541   -2.8770   -3.2935 C   0  0  0  0  0  0  0  0  0  0  0  0
    1.9911   -3.2774   -4.2258 N   0  0  0  0  0  0  0  0  0  0  0  0
    1.6546   -3.2635   -5.5296 C   0  0  0  0  0  0  0  0  0  0  0  0
    0.3992   -2.8250   -5.9557 C   0  0  0  0  0  0  0  0  0  0  0  0
   -0.5151   -2.4088   -4.9867 C   0  0  0  0  0  0  0  0  0  0  0  0
   -0.1156   -2.4180   -3.6423 C   0  0  0  0  0  0  0  0  0  0  0  0
   -1.0357   -1.9354   -2.6454 C   0  0  0  0  0  0  0  0  0  0  0  0
   -2.0710   -2.6577   -2.1526 N   0  0  0  0  0  0  0  0  0  0  0  0
   -2.4733   -4.0506   -2.5263 C   0  0  0  0  0  0  0  0  0  0  0  0
   -3.7145   -4.1013   -3.2961 C   0  0  0  0  0  0  0  0  0  0  0  0
   -0.9444   -0.6880   -1.9890 C   0  0  0  0  0  0  0  0  0  0  0  0
    0.0816    0.4038   -2.1174 C   0  0  0  0  0  0  0  0  0  0  0  0
   -0.1950    1.4617   -3.2536 C   0  0  0  0  0  0  0  0  0  0  0  0
    1.0816    2.2729   -3.4775 C   0  0  0  0  0  0  0  0  0  0  0  0
   -0.4904    0.8689   -4.5612 C   0  0  0  0  0  0  0  0  0  0  0  0
   -1.3372    2.3438   -2.8598 C   0  0  0  0  0  0  0  0  0  0  0  0
   -0.9971    3.3459   -1.8126 O   0  0  0  0  0  0  0  0  0  0  0  0
   -1.3295    4.7142   -1.8904 C   0  0  0  0  0  0  0  0  0  0  0  0
   -0.9625    5.5974   -0.7358 C   0  0  0  0  0  0  0  0  0  0  0  0
   -0.1149    4.8928    0.1675 N   0  0  0  0  0  0  0  0  0  0  0  0
    0.3113    5.5992    1.2790 N   0  0  0  0  0  0  0  0  0  0  0  0
    0.0897    5.1360    2.5355 C   0  0  0  0  0  0  0  0  0  0  0  0
   -0.5879    3.8093    2.7025 C   0  0  0  0  0  0  0  0  0  0  0  0
   -0.0413    3.0811    3.8145 N   0  0  0  0  0  0  0  0  0  0  0  0
    0.7468    2.0060    3.6735 C   0  0  0  0  0  0  0  0  0  0  0  0
    1.0655    1.2629    4.9170 C   0  0  0  0  0  0  0  0  0  0  0  0
    2.3554    1.6954    5.6080 C   0  0  0  0  0  0  0  0  0  0  0  0
    2.2567    1.8410    7.0697 C   0  0  0  0  0  0  0  0  0  0  0  0
    3.2219    2.6563    4.9022 C   0  0  0  0  0  0  0  0  0  0  0  0
    1.0320   -0.1700    4.6201 N   0  0  0  0  0  0  0  0  0  0  0  0
   -0.1916   -0.8029    4.5184 C   0  0  0  0  0  0  0  0  0  0  0  0
   -0.3827   -2.2552    4.1624 C   0  0  0  0  0  0  0  0  0  0  0  0
   -1.8087   -2.7785    4.3742 C   0  0  0  0  0  0  0  0  0  0  0  0
   -1.9446   -4.1977    3.9217 C   0  0  0  0  0  0  0  0  0  0  0  0
   -1.4054   -4.3755    2.5592 N   0  0  0  0  0  0  0  0  0  0  0  0
   -2.0102   -5.0659    1.5520 C   0  0  0  0  0  0  0  0  0  0  0  0
   -3.1521   -5.8077    1.7273 C   0  0  0  0  0  0  0  0  0  0  0  0
   -4.0677   -6.5094    1.6865 C   0  0  0  0  0  0  0  0  0  0  0  0
   -5.2194   -7.2834    1.8202 C   0  0  0  0  0  0  0  0  0  0  0  0
   -6.3734   -6.6096    1.3376 N   0  0  0  0  0  0  0  0  0  0  0  0
   -7.6433   -7.1260    1.6101 C   0  0  0  0  0  0  0  0  0  0  0  0
   -6.2654   -5.8134    0.1815 C   0  0  0  0  0  0  0  0  0  0  0  0
   -5.3740   -7.6179    3.2910 C   0  0  0  0  0  0  0  0  0  0  0  0
   -5.0773   -8.5984    1.0553 C   0  0  0  0  0  0  0  0  0  0  0  0
   -1.5037   -5.0531    0.4126 O   0  0  0  0  0  0  0  0  0  0  0  0
   -0.1460   -3.7921    2.2801 C   0  0  0  0  0  0  0  0  0  0  0  0
   -0.0613   -2.3916    2.6893 C   0  0  0  0  0  0  0  0  0  0  0  0
   -1.2083   -0.1110    4.7189 O   0  0  0  0  0  0  0  0  0  0  0  0
    2.2980   -0.8669    4.3449 C   0  0  0  0  0  0  0  0  0  0  0  0
    1.0750    1.6085    2.5632 O   0  0  0  0  0  0  0  0  0  0  0  0
   -2.1453    4.0022    2.9429 C   0  0  0  0  0  0  0  0  0  0  0  0
   -2.9086    2.6490    3.0581 C   0  0  0  0  0  0  0  0  0  0  0  0
   -3.1208    2.1584    1.6813 C   0  0  0  0  0  0  0  0  0  0  0  0
   -3.8074    0.8969    1.6713 N   0  0  0  0  0  0  0  0  0  0  0  0
   -5.0703    0.8682    2.4147 C   0  0  0  0  0  0  0  0  0  0  0  0
   -4.8999    1.5464    3.7933 C   0  0  0  0  0  0  0  0  0  0  0  0
   -4.1971    2.8400    3.6947 O   0  0  0  0  0  0  0  0  0  0  0  0
    0.4159    5.7900    3.5353 O   0  0  0  0  0  0  0  0  0  0  0  0
    1.0502    6.8327    0.9943 C   0  0  0  0  0  0  0  0  0  0  0  0
    0.2395    7.6982    0.0147 C   0  0  0  0  0  0  0  0  0  0  0  0
   -0.2426    6.8947   -1.1949 C   0  0  0  0  0  0  0  0  0  0  0  0
   -1.9131    5.2734   -2.8484 O   0  0  0  0  0  0  0  0  0  0  0  0
   -2.0185   -0.7091   -1.0829 C   0  0  0  0  0  0  0  0  0  0  0  0
   -2.6778   -1.9261   -1.2090 C   0  0  0  0  0  0  0  0  0  0  0  0
   -3.7947   -2.2139   -0.3574 C   0  0  0  0  0  0  0  0  0  0  0  0
   -4.1464   -1.2538    0.5876 C   0  0  0  0  0  0  0  0  0  0  0  0
   -3.4604   -0.0431    0.7033 C   0  0  0  0  0  0  0  0  0  0  0  0
   -2.3857    0.2445   -0.1523 C   0  0  0  0  0  0  0  0  0  0  0  0
    0.4421   -3.0404    4.9294 F   0  0  0  0  0  0  0  0  0  0  0  0
  1  2  1  0  0  0  0
  2  3  1  0  0  0  0
  2  5  1  0  0  0  0
  3  4  1  0  0  0  0
  5  6  4  0  0  0  0
  5 10  4  0  0  0  0
  6  7  4  0  0  0  0
  7  8  4  0  0  0  0
  8  9  4  0  0  0  0
  9 10  4  0  0  0  0
 10 11  1  0  0  0  0
 11 12  4  0  0  0  0
 11 15  4  0  0  0  0
 12 13  1  0  0  0  0
 12 68  4  0  0  0  0
 13 14  1  0  0  0  0
 15 16  1  0  0  0  0
 15 67  4  0  0  0  0
 16 17  1  0  0  0  0
 17 18  1  0  0  0  0
 17 19  1  0  0  0  0
 17 20  1  0  0  0  0
 20 21  1  0  0  0  0
 21 22  1  0  0  0  0
 22 23  1  0  0  0  0
 22 66  2  0  0  0  0
 23 24  1  0  0  0  0
 23 65  1  0  0  0  0
 24 25  1  0  0  0  0
 25 26  1  0  0  0  0
 25 63  1  0  0  0  0
 26 27  1  0  0  0  0
 26 62  2  0  0  0  0
 27 28  1  0  0  0  0
 27 55  1  0  0  0  0
 28 29  1  0  0  0  0
 29 30  1  0  0  0  0
 29 54  2  0  0  0  0
 30 31  1  0  0  0  0
 30 34  1  0  0  0  0
 31 32  1  0  0  0  0
 31 33  1  0  0  0  0
 34 35  1  0  0  0  0
 34 53  1  0  0  0  0
 35 36  1  0  0  0  0
 35 52  2  0  0  0  0
 36 37  1  0  0  0  0
 36 51  1  0  0  0  0
 36 73  1  0  0  0  0
 37 38  1  0  0  0  0
 38 39  1  0  0  0  0
 39 40  1  0  0  0  0
 39 50  1  0  0  0  0
 40 41  1  0  0  0  0
 40 49  2  0  0  0  0
 41 42  1  0  0  0  0
 42 43  1  0  0  0  0
 43 44  1  0  0  0  0
 43 47  1  0  0  0  0
 43 48  1  0  0  0  0
 44 45  1  0  0  0  0
 44 46  1  0  0  0  0
 50 51  1  0  0  0  0
 55 56  1  0  0  0  0
 56 57  1  0  0  0  0
 56 61  1  0  0  0  0
 57 58  1  0  0  0  0
 58 59  1  0  0  0  0
 58 71  1  0  0  0  0
 59 60  1  0  0  0  0
 60 61  1  0  0  0  0
 63 64  1  0  0  0  0
 64 65  1  0  0  0  0
 67 68  4  0  0  0  0
 67 72  4  0  0  0  0
 68 69  4  0  0  0  0
 69 70  4  0  0  0  0
 70 71  4  0  0  0  0
 71 72  4  0  0  0  0
M  END
$$$$
