mol_ETKDG4_224
  PyMOL3.1          3D                             0

 73 79  0  0  0  0  0  0  0  0999 V2000
    5.0244    4.4960   -0.8475 C   0  0  0  0  0  0  0  0  0  0  0  0
    3.7450    4.6220   -0.1066 C   0  0  0  0  0  0  0  0  0  0  0  0
    3.9114    4.9043    1.2764 O   0  0  0  0  0  0  0  0  0  0  0  0
    4.2165    3.8352    2.1221 C   0  0  0  0  0  0  0  0  0  0  0  0
    2.8653    5.6723   -0.6516 C   0  0  0  0  0  0  0  0  0  0  0  0
    3.0550    6.9088   -0.2206 N   0  0  0  0  0  0  0  0  0  0  0  0
    2.3229    7.9436   -0.6960 C   0  0  0  0  0  0  0  0  0  0  0  0
    1.3355    7.7516   -1.6724 C   0  0  0  0  0  0  0  0  0  0  0  0
    1.1281    6.4491   -2.1549 C   0  0  0  0  0  0  0  0  0  0  0  0
    1.8910    5.3925   -1.6161 C   0  0  0  0  0  0  0  0  0  0  0  0
    1.6343    4.0295   -2.0655 C   0  0  0  0  0  0  0  0  0  0  0  0
    2.2526    3.4404   -3.1305 N   0  0  0  0  0  0  0  0  0  0  0  0
    3.2743    4.0610   -4.0425 C   0  0  0  0  0  0  0  0  0  0  0  0
    2.6951    4.4645   -5.3401 C   0  0  0  0  0  0  0  0  0  0  0  0
    0.7892    3.0905   -1.4195 C   0  0  0  0  0  0  0  0  0  0  0  0
   -0.0219    3.2657   -0.1611 C   0  0  0  0  0  0  0  0  0  0  0  0
   -1.5320    3.6767   -0.4170 C   0  0  0  0  0  0  0  0  0  0  0  0
   -2.1043    4.3104    0.8548 C   0  0  0  0  0  0  0  0  0  0  0  0
   -1.7046    4.6883   -1.4763 C   0  0  0  0  0  0  0  0  0  0  0  0
   -2.2810    2.4504   -0.8179 C   0  0  0  0  0  0  0  0  0  0  0  0
   -2.5191    1.4376    0.2571 O   0  0  0  0  0  0  0  0  0  0  0  0
   -3.7799    0.8345    0.4794 C   0  0  0  0  0  0  0  0  0  0  0  0
   -3.8806   -0.2639    1.4901 C   0  0  0  0  0  0  0  0  0  0  0  0
   -2.5954   -0.6454    1.9872 N   0  0  0  0  0  0  0  0  0  0  0  0
   -2.5521   -1.6617    2.9312 N   0  0  0  0  0  0  0  0  0  0  0  0
   -1.7167   -2.7383    2.7722 C   0  0  0  0  0  0  0  0  0  0  0  0
   -0.7315   -2.7573    1.6273 C   0  0  0  0  0  0  0  0  0  0  0  0
    0.4823   -3.4554    2.0101 N   0  0  0  0  0  0  0  0  0  0  0  0
    1.6515   -2.8289    2.2781 C   0  0  0  0  0  0  0  0  0  0  0  0
    2.8326   -3.7094    2.5537 C   0  0  0  0  0  0  0  0  0  0  0  0
    3.1862   -3.8469    4.0696 C   0  0  0  0  0  0  0  0  0  0  0  0
    4.1198   -4.9755    4.3436 C   0  0  0  0  0  0  0  0  0  0  0  0
    1.9958   -3.8504    4.9660 C   0  0  0  0  0  0  0  0  0  0  0  0
    3.9740   -3.2039    1.7864 N   0  0  0  0  0  0  0  0  0  0  0  0
    4.1335   -3.6219    0.4835 C   0  0  0  0  0  0  0  0  0  0  0  0
    5.2661   -3.2124   -0.4291 C   0  0  0  0  0  0  0  0  0  0  0  0
    5.3706   -4.0972   -1.6924 C   0  0  0  0  0  0  0  0  0  0  0  0
    6.4222   -3.6112   -2.6298 C   0  0  0  0  0  0  0  0  0  0  0  0
    6.3239   -2.1558   -2.8619 N   0  0  0  0  0  0  0  0  0  0  0  0
    6.4036   -1.5512   -4.0848 C   0  0  0  0  0  0  0  0  0  0  0  0
    6.1395   -2.1926   -5.2849 C   0  0  0  0  0  0  0  0  0  0  0  0
    5.9896   -2.6011   -6.3623 C   0  0  0  0  0  0  0  0  0  0  0  0
    5.7241   -3.2258   -7.5880 C   0  0  0  0  0  0  0  0  0  0  0  0
    6.9399   -3.5089   -8.3050 N   0  0  0  0  0  0  0  0  0  0  0  0
    6.9836   -4.5986   -9.2057 C   0  0  0  0  0  0  0  0  0  0  0  0
    7.8264   -2.4391   -8.5940 C   0  0  0  0  0  0  0  0  0  0  0  0
    4.8159   -2.3418   -8.4524 C   0  0  0  0  0  0  0  0  0  0  0  0
    4.9557   -4.5055   -7.3183 C   0  0  0  0  0  0  0  0  0  0  0  0
    6.6629   -0.3396   -4.1227 O   0  0  0  0  0  0  0  0  0  0  0  0
    6.1498   -1.3304   -1.7191 C   0  0  0  0  0  0  0  0  0  0  0  0
    5.0192   -1.7907   -0.8786 C   0  0  0  0  0  0  0  0  0  0  0  0
    3.2645   -4.3879    0.0203 O   0  0  0  0  0  0  0  0  0  0  0  0
    4.8497   -2.1902    2.3996 C   0  0  0  0  0  0  0  0  0  0  0  0
    1.7223   -1.6179    2.1959 O   0  0  0  0  0  0  0  0  0  0  0  0
   -1.3431   -3.4794    0.3503 C   0  0  0  0  0  0  0  0  0  0  0  0
   -0.4303   -3.3515   -0.9185 C   0  0  0  0  0  0  0  0  0  0  0  0
   -0.5679   -1.9483   -1.4150 C   0  0  0  0  0  0  0  0  0  0  0  0
    0.1602   -1.7029   -2.6402 N   0  0  0  0  0  0  0  0  0  0  0  0
   -0.1006   -2.6607   -3.7167 C   0  0  0  0  0  0  0  0  0  0  0  0
   -0.1153   -4.1132   -3.1855 C   0  0  0  0  0  0  0  0  0  0  0  0
   -0.9168   -4.2580   -1.9474 O   0  0  0  0  0  0  0  0  0  0  0  0
   -1.7650   -3.6977    3.5600 O   0  0  0  0  0  0  0  0  0  0  0  0
   -3.4013   -1.4667    4.1175 C   0  0  0  0  0  0  0  0  0  0  0  0
   -4.8207   -1.0276    3.7111 C   0  0  0  0  0  0  0  0  0  0  0  0
   -4.8198    0.0903    2.6646 C   0  0  0  0  0  0  0  0  0  0  0  0
   -4.8677    1.1607   -0.0708 O   0  0  0  0  0  0  0  0  0  0  0  0
    0.9209    1.9043   -2.2011 C   0  0  0  0  0  0  0  0  0  0  0  0
    1.8222    2.1627   -3.2320 C   0  0  0  0  0  0  0  0  0  0  0  0
    2.1699    1.0986   -4.1461 C   0  0  0  0  0  0  0  0  0  0  0  0
    1.5855   -0.1702   -3.9291 C   0  0  0  0  0  0  0  0  0  0  0  0
    0.6917   -0.4149   -2.8751 C   0  0  0  0  0  0  0  0  0  0  0  0
    0.3429    0.6409   -2.0061 C   0  0  0  0  0  0  0  0  0  0  0  0
    6.4766   -3.3065    0.2310 F   0  0  0  0  0  0  0  0  0  0  0  0
  1  2  1  0  0  0  0
  2  3  1  0  0  0  0
  2  5  1  0  0  0  0
  3  4  1  0  0  0  0
  5  6  4  0  0  0  0
  5 10  4  0  0  0  0
  6  7  4  0  0  0  0
  7  8  4  0  0  0  0
  8  9  4  0  0  0  0
  9 10  4  0  0  0  0
 10 11  1  0  0  0  0
 11 12  4  0  0  0  0
 11 15  4  0  0  0  0
 12 13  1  0  0  0  0
 12 68  4  0  0  0  0
 13 14  1  0  0  0  0
 15 16  1  0  0  0  0
 15 67  4  0  0  0  0
 16 17  1  0  0  0  0
 17 18  1  0  0  0  0
 17 19  1  0  0  0  0
 17 20  1  0  0  0  0
 20 21  1  0  0  0  0
 21 22  1  0  0  0  0
 22 23  1  0  0  0  0
 22 66  2  0  0  0  0
 23 24  1  0  0  0  0
 23 65  1  0  0  0  0
 24 25  1  0  0  0  0
 25 26  1  0  0  0  0
 25 63  1  0  0  0  0
 26 27  1  0  0  0  0
 26 62  2  0  0  0  0
 27 28  1  0  0  0  0
 27 55  1  0  0  0  0
 28 29  1  0  0  0  0
 29 30  1  0  0  0  0
 29 54  2  0  0  0  0
 30 31  1  0  0  0  0
 30 34  1  0  0  0  0
 31 32  1  0  0  0  0
 31 33  1  0  0  0  0
 34 35  1  0  0  0  0
 34 53  1  0  0  0  0
 35 36  1  0  0  0  0
 35 52  2  0  0  0  0
 36 37  1  0  0  0  0
 36 51  1  0  0  0  0
 36 73  1  0  0  0  0
 37 38  1  0  0  0  0
 38 39  1  0  0  0  0
 39 40  1  0  0  0  0
 39 50  1  0  0  0  0
 40 41  1  0  0  0  0
 40 49  2  0  0  0  0
 41 42  1  0  0  0  0
 42 43  1  0  0  0  0
 43 44  1  0  0  0  0
 43 47  1  0  0  0  0
 43 48  1  0  0  0  0
 44 45  1  0  0  0  0
 44 46  1  0  0  0  0
 50 51  1  0  0  0  0
 55 56  1  0  0  0  0
 56 57  1  0  0  0  0
 56 61  1  0  0  0  0
 57 58  1  0  0  0  0
 58 59  1  0  0  0  0
 58 71  1  0  0  0  0
 59 60  1  0  0  0  0
 60 61  1  0  0  0  0
 63 64  1  0  0  0  0
 64 65  1  0  0  0  0
 67 68  4  0  0  0  0
 67 72  4  0  0  0  0
 68 69  4  0  0  0  0
 69 70  4  0  0  0  0
 70 71  4  0  0  0  0
 71 72  4  0  0  0  0
M  END
$$$$
