mol_ETKDG1_90
  PyMOL3.1          3D                             0

 73 79  0  0  0  0  0  0  0  0999 V2000
   -1.7064    5.3073   -6.6993 C   0  0  0  0  0  0  0  0  0  0  0  0
   -1.4746    3.8924   -6.3290 C   0  0  0  0  0  0  0  0  0  0  0  0
   -2.5746    3.0301   -6.4765 O   0  0  0  0  0  0  0  0  0  0  0  0
   -3.6487    3.1922   -5.5783 C   0  0  0  0  0  0  0  0  0  0  0  0
   -0.3363    3.2852   -7.0479 C   0  0  0  0  0  0  0  0  0  0  0  0
   -0.5011    2.9408   -8.3137 N   0  0  0  0  0  0  0  0  0  0  0  0
    0.5192    2.4399   -9.0458 C   0  0  0  0  0  0  0  0  0  0  0  0
    1.7970    2.2746   -8.5013 C   0  0  0  0  0  0  0  0  0  0  0  0
    1.9958    2.6420   -7.1618 C   0  0  0  0  0  0  0  0  0  0  0  0
    0.8971    3.1244   -6.4310 C   0  0  0  0  0  0  0  0  0  0  0  0
    1.0745    3.4260   -5.0288 C   0  0  0  0  0  0  0  0  0  0  0  0
    1.5022    4.6289   -4.5639 N   0  0  0  0  0  0  0  0  0  0  0  0
    1.8585    5.8527   -5.3675 C   0  0  0  0  0  0  0  0  0  0  0  0
    3.2902    6.1443   -5.3836 C   0  0  0  0  0  0  0  0  0  0  0  0
    0.7338    2.5643   -3.9552 C   0  0  0  0  0  0  0  0  0  0  0  0
    0.0905    1.1976   -3.9506 C   0  0  0  0  0  0  0  0  0  0  0  0
    1.0420   -0.0724   -4.0081 C   0  0  0  0  0  0  0  0  0  0  0  0
    1.7117   -0.2495   -5.3566 C   0  0  0  0  0  0  0  0  0  0  0  0
    0.1753   -1.2858   -3.8583 C   0  0  0  0  0  0  0  0  0  0  0  0
    2.1098   -0.0558   -2.9215 C   0  0  0  0  0  0  0  0  0  0  0  0
    1.7062   -0.7255   -1.6264 O   0  0  0  0  0  0  0  0  0  0  0  0
    2.5096   -1.6696   -0.9190 C   0  0  0  0  0  0  0  0  0  0  0  0
    2.0026   -2.2388    0.3931 C   0  0  0  0  0  0  0  0  0  0  0  0
    0.5902   -2.0230    0.5321 N   0  0  0  0  0  0  0  0  0  0  0  0
   -0.0257   -2.5309    1.6756 N   0  0  0  0  0  0  0  0  0  0  0  0
   -0.7760   -1.7328    2.4925 C   0  0  0  0  0  0  0  0  0  0  0  0
   -0.9323   -0.2790    2.1416 C   0  0  0  0  0  0  0  0  0  0  0  0
   -2.2477    0.2147    2.5116 N   0  0  0  0  0  0  0  0  0  0  0  0
   -3.2367    0.4428    1.6208 C   0  0  0  0  0  0  0  0  0  0  0  0
   -4.4835    1.0685    2.1677 C   0  0  0  0  0  0  0  0  0  0  0  0
   -5.7035    0.0754    2.1648 C   0  0  0  0  0  0  0  0  0  0  0  0
   -6.9061    0.6318    2.8566 C   0  0  0  0  0  0  0  0  0  0  0  0
   -5.3197   -1.2767    2.6985 C   0  0  0  0  0  0  0  0  0  0  0  0
   -4.7073    2.2862    1.3686 N   0  0  0  0  0  0  0  0  0  0  0  0
   -3.9880    3.4161    1.6934 C   0  0  0  0  0  0  0  0  0  0  0  0
   -3.9894    4.7085    0.9067 C   0  0  0  0  0  0  0  0  0  0  0  0
   -3.1481    4.4674   -0.3196 C   0  0  0  0  0  0  0  0  0  0  0  0
   -3.0846    5.6916   -1.1701 C   0  0  0  0  0  0  0  0  0  0  0  0
   -2.5136    6.7808   -0.3777 N   0  0  0  0  0  0  0  0  0  0  0  0
   -1.3981    7.4312   -0.8442 C   0  0  0  0  0  0  0  0  0  0  0  0
   -0.4479    8.0351   -0.0221 C   0  0  0  0  0  0  0  0  0  0  0  0
    0.4230    8.5960    0.5101 C   0  0  0  0  0  0  0  0  0  0  0  0
    1.3802    9.2567    1.3089 C   0  0  0  0  0  0  0  0  0  0  0  0
    1.0374   10.6451    1.3878 N   0  0  0  0  0  0  0  0  0  0  0  0
    0.1444   11.0983    2.3751 C   0  0  0  0  0  0  0  0  0  0  0  0
    1.1966   11.4628    0.2334 C   0  0  0  0  0  0  0  0  0  0  0  0
    1.4211    8.5955    2.6804 C   0  0  0  0  0  0  0  0  0  0  0  0
    2.7788    9.1174    0.7275 C   0  0  0  0  0  0  0  0  0  0  0  0
   -1.1784    7.4346   -2.0524 O   0  0  0  0  0  0  0  0  0  0  0  0
   -3.1786    7.0780    0.8678 C   0  0  0  0  0  0  0  0  0  0  0  0
   -3.3638    5.8702    1.7091 C   0  0  0  0  0  0  0  0  0  0  0  0
   -3.2471    3.3505    2.6966 O   0  0  0  0  0  0  0  0  0  0  0  0
   -5.5693    2.2227    0.1840 C   0  0  0  0  0  0  0  0  0  0  0  0
   -3.0538    0.2615    0.4318 O   0  0  0  0  0  0  0  0  0  0  0  0
    0.1814    0.5535    2.9056 C   0  0  0  0  0  0  0  0  0  0  0  0
    0.2178    2.0637    2.5582 C   0  0  0  0  0  0  0  0  0  0  0  0
    0.8825    2.2091    1.2278 C   0  0  0  0  0  0  0  0  0  0  0  0
    1.0713    3.5974    0.8650 N   0  0  0  0  0  0  0  0  0  0  0  0
    1.7507    4.4067    1.8925 C   0  0  0  0  0  0  0  0  0  0  0  0
    1.1254    4.1720    3.2739 C   0  0  0  0  0  0  0  0  0  0  0  0
    1.0152    2.7330    3.5691 O   0  0  0  0  0  0  0  0  0  0  0  0
   -1.2896   -2.1685    3.5357 O   0  0  0  0  0  0  0  0  0  0  0  0
    0.1328   -3.9682    1.8983 C   0  0  0  0  0  0  0  0  0  0  0  0
    1.6285   -4.3396    1.7939 C   0  0  0  0  0  0  0  0  0  0  0  0
    2.2733   -3.7698    0.5281 C   0  0  0  0  0  0  0  0  0  0  0  0
    3.6324   -2.0583   -1.3119 O   0  0  0  0  0  0  0  0  0  0  0  0
    1.0458    3.3277   -2.8112 C   0  0  0  0  0  0  0  0  0  0  0  0
    1.4987    4.5767   -3.2228 C   0  0  0  0  0  0  0  0  0  0  0  0
    1.8387    5.5575   -2.2297 C   0  0  0  0  0  0  0  0  0  0  0  0
    1.6835    5.1922   -0.8842 C   0  0  0  0  0  0  0  0  0  0  0  0
    1.2209    3.9278   -0.4953 C   0  0  0  0  0  0  0  0  0  0  0  0
    0.8842    2.9793   -1.4713 C   0  0  0  0  0  0  0  0  0  0  0  0
   -5.2774    5.1020    0.5871 F   0  0  0  0  0  0  0  0  0  0  0  0
  1  2  1  0  0  0  0
  2  3  1  0  0  0  0
  2  5  1  0  0  0  0
  3  4  1  0  0  0  0
  5  6  4  0  0  0  0
  5 10  4  0  0  0  0
  6  7  4  0  0  0  0
  7  8  4  0  0  0  0
  8  9  4  0  0  0  0
  9 10  4  0  0  0  0
 10 11  1  0  0  0  0
 11 12  4  0  0  0  0
 11 15  4  0  0  0  0
 12 13  1  0  0  0  0
 12 68  4  0  0  0  0
 13 14  1  0  0  0  0
 15 16  1  0  0  0  0
 15 67  4  0  0  0  0
 16 17  1  0  0  0  0
 17 18  1  0  0  0  0
 17 19  1  0  0  0  0
 17 20  1  0  0  0  0
 20 21  1  0  0  0  0
 21 22  1  0  0  0  0
 22 23  1  0  0  0  0
 22 66  2  0  0  0  0
 23 24  1  0  0  0  0
 23 65  1  0  0  0  0
 24 25  1  0  0  0  0
 25 26  1  0  0  0  0
 25 63  1  0  0  0  0
 26 27  1  0  0  0  0
 26 62  2  0  0  0  0
 27 28  1  0  0  0  0
 27 55  1  0  0  0  0
 28 29  1  0  0  0  0
 29 30  1  0  0  0  0
 29 54  2  0  0  0  0
 30 31  1  0  0  0  0
 30 34  1  0  0  0  0
 31 32  1  0  0  0  0
 31 33  1  0  0  0  0
 34 35  1  0  0  0  0
 34 53  1  0  0  0  0
 35 36  1  0  0  0  0
 35 52  2  0  0  0  0
 36 37  1  0  0  0  0
 36 51  1  0  0  0  0
 36 73  1  0  0  0  0
 37 38  1  0  0  0  0
 38 39  1  0  0  0  0
 39 40  1  0  0  0  0
 39 50  1  0  0  0  0
 40 41  1  0  0  0  0
 40 49  2  0  0  0  0
 41 42  1  0  0  0  0
 42 43  1  0  0  0  0
 43 44  1  0  0  0  0
 43 47  1  0  0  0  0
 43 48  1  0  0  0  0
 44 45  1  0  0  0  0
 44 46  1  0  0  0  0
 50 51  1  0  0  0  0
 55 56  1  0  0  0  0
 56 57  1  0  0  0  0
 56 61  1  0  0  0  0
 57 58  1  0  0  0  0
 58 59  1  0  0  0  0
 58 71  1  0  0  0  0
 59 60  1  0  0  0  0
 60 61  1  0  0  0  0
 63 64  1  0  0  0  0
 64 65  1  0  0  0  0
 67 68  4  0  0  0  0
 67 72  4  0  0  0  0
 68 69  4  0  0  0  0
 69 70  4  0  0  0  0
 70 71  4  0  0  0  0
 71 72  4  0  0  0  0
M  END
$$$$
