mol_ETKDG0_327
  PyMOL3.1          3D                             0

 73 79  0  0  0  0  0  0  0  0999 V2000
   -6.1407   -0.7607   -5.0405 C   0  0  0  0  0  0  0  0  0  0  0  0
   -5.3529   -1.0884   -3.8304 C   0  0  0  0  0  0  0  0  0  0  0  0
   -5.6187   -0.2695   -2.7043 O   0  0  0  0  0  0  0  0  0  0  0  0
   -5.1353    1.0518   -2.7467 C   0  0  0  0  0  0  0  0  0  0  0  0
   -5.5626   -2.4812   -3.3949 C   0  0  0  0  0  0  0  0  0  0  0  0
   -6.7129   -2.7770   -2.8081 N   0  0  0  0  0  0  0  0  0  0  0  0
   -7.0002   -4.0389   -2.4264 C   0  0  0  0  0  0  0  0  0  0  0  0
   -6.1027   -5.0891   -2.6421 C   0  0  0  0  0  0  0  0  0  0  0  0
   -4.8850   -4.8022   -3.2711 C   0  0  0  0  0  0  0  0  0  0  0  0
   -4.6120   -3.4686   -3.6260 C   0  0  0  0  0  0  0  0  0  0  0  0
   -3.3345   -3.1691   -4.2315 C   0  0  0  0  0  0  0  0  0  0  0  0
   -3.0776   -3.3472   -5.5476 N   0  0  0  0  0  0  0  0  0  0  0  0
   -4.0212   -3.8477   -6.6070 C   0  0  0  0  0  0  0  0  0  0  0  0
   -3.7201   -5.2168   -7.0381 C   0  0  0  0  0  0  0  0  0  0  0  0
   -2.2157   -2.5833   -3.5773 C   0  0  0  0  0  0  0  0  0  0  0  0
   -2.0521   -2.0637   -2.1697 C   0  0  0  0  0  0  0  0  0  0  0  0
   -1.5776   -3.0939   -1.0661 C   0  0  0  0  0  0  0  0  0  0  0  0
   -1.6274   -2.3793    0.2854 C   0  0  0  0  0  0  0  0  0  0  0  0
   -2.4963   -4.2495   -0.9074 C   0  0  0  0  0  0  0  0  0  0  0  0
   -0.1849   -3.6124   -1.3386 C   0  0  0  0  0  0  0  0  0  0  0  0
    0.9501   -2.7058   -0.9372 O   0  0  0  0  0  0  0  0  0  0  0  0
    2.1295   -3.1454   -0.2703 C   0  0  0  0  0  0  0  0  0  0  0  0
    3.2261   -2.1421    0.0265 C   0  0  0  0  0  0  0  0  0  0  0  0
    2.7399   -0.8151   -0.1628 N   0  0  0  0  0  0  0  0  0  0  0  0
    3.6002    0.2362    0.1276 N   0  0  0  0  0  0  0  0  0  0  0  0
    3.8584    1.2132   -0.7883 C   0  0  0  0  0  0  0  0  0  0  0  0
    3.1819    1.1396   -2.1243 C   0  0  0  0  0  0  0  0  0  0  0  0
    2.7449    2.4435   -2.5810 N   0  0  0  0  0  0  0  0  0  0  0  0
    1.4792    2.8694   -2.4759 C   0  0  0  0  0  0  0  0  0  0  0  0
    1.1584    4.1828   -3.1171 C   0  0  0  0  0  0  0  0  0  0  0  0
    1.0557    5.3713   -2.1023 C   0  0  0  0  0  0  0  0  0  0  0  0
    0.9962    6.7012   -2.7852 C   0  0  0  0  0  0  0  0  0  0  0  0
    2.1068    5.3214   -1.0352 C   0  0  0  0  0  0  0  0  0  0  0  0
   -0.0927    3.9936   -3.8535 N   0  0  0  0  0  0  0  0  0  0  0  0
   -0.0384    3.4679   -5.1264 C   0  0  0  0  0  0  0  0  0  0  0  0
   -1.2436    3.1325   -5.9657 C   0  0  0  0  0  0  0  0  0  0  0  0
   -1.8091    1.8395   -5.4218 C   0  0  0  0  0  0  0  0  0  0  0  0
   -3.0292    1.4504   -6.1491 C   0  0  0  0  0  0  0  0  0  0  0  0
   -2.7409    1.3376   -7.5756 N   0  0  0  0  0  0  0  0  0  0  0  0
   -3.1293    0.2110   -8.2361 C   0  0  0  0  0  0  0  0  0  0  0  0
   -2.5616   -0.2235   -9.4305 C   0  0  0  0  0  0  0  0  0  0  0  0
   -2.2227   -0.7627  -10.3989 C   0  0  0  0  0  0  0  0  0  0  0  0
   -1.7067   -1.3626  -11.5643 C   0  0  0  0  0  0  0  0  0  0  0  0
   -2.3961   -2.6044  -11.8077 N   0  0  0  0  0  0  0  0  0  0  0  0
   -3.6724   -2.5665  -12.4220 C   0  0  0  0  0  0  0  0  0  0  0  0
   -2.1200   -3.7217  -10.9906 C   0  0  0  0  0  0  0  0  0  0  0  0
   -0.2163   -1.5921  -11.3968 C   0  0  0  0  0  0  0  0  0  0  0  0
   -1.8659   -0.4345  -12.7507 C   0  0  0  0  0  0  0  0  0  0  0  0
   -3.9983   -0.4977   -7.7361 O   0  0  0  0  0  0  0  0  0  0  0  0
   -2.0717    2.4489   -8.2025 C   0  0  0  0  0  0  0  0  0  0  0  0
   -0.9040    2.9260   -7.4515 C   0  0  0  0  0  0  0  0  0  0  0  0
    1.0896    3.2209   -5.5960 O   0  0  0  0  0  0  0  0  0  0  0  0
   -1.3728    4.2394   -3.1595 C   0  0  0  0  0  0  0  0  0  0  0  0
    0.6324    2.1501   -1.9705 O   0  0  0  0  0  0  0  0  0  0  0  0
    4.1561    0.5162   -3.1948 C   0  0  0  0  0  0  0  0  0  0  0  0
    3.5054    0.2796   -4.5806 C   0  0  0  0  0  0  0  0  0  0  0  0
    2.6120   -0.9017   -4.4560 C   0  0  0  0  0  0  0  0  0  0  0  0
    2.0300   -1.2796   -5.7147 N   0  0  0  0  0  0  0  0  0  0  0  0
    2.9847   -1.4634   -6.8140 C   0  0  0  0  0  0  0  0  0  0  0  0
    3.9926   -0.3039   -6.8592 C   0  0  0  0  0  0  0  0  0  0  0  0
    4.5596   -0.0212   -5.5330 O   0  0  0  0  0  0  0  0  0  0  0  0
    4.6637    2.1336   -0.5586 O   0  0  0  0  0  0  0  0  0  0  0  0
    4.1423    0.2574    1.4868 C   0  0  0  0  0  0  0  0  0  0  0  0
    4.7344   -1.1246    1.8169 C   0  0  0  0  0  0  0  0  0  0  0  0
    3.7633   -2.2636    1.4871 C   0  0  0  0  0  0  0  0  0  0  0  0
    2.3269   -4.3183    0.1142 O   0  0  0  0  0  0  0  0  0  0  0  0
   -1.2595   -2.4644   -4.6008 C   0  0  0  0  0  0  0  0  0  0  0  0
   -1.8264   -2.9378   -5.7827 C   0  0  0  0  0  0  0  0  0  0  0  0
   -1.0641   -2.8923   -6.9939 C   0  0  0  0  0  0  0  0  0  0  0  0
    0.2065   -2.3282   -6.9288 C   0  0  0  0  0  0  0  0  0  0  0  0
    0.7566   -1.8478   -5.7379 C   0  0  0  0  0  0  0  0  0  0  0  0
    0.0146   -1.9210   -4.5408 C   0  0  0  0  0  0  0  0  0  0  0  0
   -2.1760    4.1588   -5.9319 F   0  0  0  0  0  0  0  0  0  0  0  0
  1  2  1  0  0  0  0
  2  3  1  0  0  0  0
  2  5  1  0  0  0  0
  3  4  1  0  0  0  0
  5  6  4  0  0  0  0
  5 10  4  0  0  0  0
  6  7  4  0  0  0  0
  7  8  4  0  0  0  0
  8  9  4  0  0  0  0
  9 10  4  0  0  0  0
 10 11  1  0  0  0  0
 11 12  4  0  0  0  0
 11 15  4  0  0  0  0
 12 13  1  0  0  0  0
 12 68  4  0  0  0  0
 13 14  1  0  0  0  0
 15 16  1  0  0  0  0
 15 67  4  0  0  0  0
 16 17  1  0  0  0  0
 17 18  1  0  0  0  0
 17 19  1  0  0  0  0
 17 20  1  0  0  0  0
 20 21  1  0  0  0  0
 21 22  1  0  0  0  0
 22 23  1  0  0  0  0
 22 66  2  0  0  0  0
 23 24  1  0  0  0  0
 23 65  1  0  0  0  0
 24 25  1  0  0  0  0
 25 26  1  0  0  0  0
 25 63  1  0  0  0  0
 26 27  1  0  0  0  0
 26 62  2  0  0  0  0
 27 28  1  0  0  0  0
 27 55  1  0  0  0  0
 28 29  1  0  0  0  0
 29 30  1  0  0  0  0
 29 54  2  0  0  0  0
 30 31  1  0  0  0  0
 30 34  1  0  0  0  0
 31 32  1  0  0  0  0
 31 33  1  0  0  0  0
 34 35  1  0  0  0  0
 34 53  1  0  0  0  0
 35 36  1  0  0  0  0
 35 52  2  0  0  0  0
 36 37  1  0  0  0  0
 36 51  1  0  0  0  0
 36 73  1  0  0  0  0
 37 38  1  0  0  0  0
 38 39  1  0  0  0  0
 39 40  1  0  0  0  0
 39 50  1  0  0  0  0
 40 41  1  0  0  0  0
 40 49  2  0  0  0  0
 41 42  1  0  0  0  0
 42 43  1  0  0  0  0
 43 44  1  0  0  0  0
 43 47  1  0  0  0  0
 43 48  1  0  0  0  0
 44 45  1  0  0  0  0
 44 46  1  0  0  0  0
 50 51  1  0  0  0  0
 55 56  1  0  0  0  0
 56 57  1  0  0  0  0
 56 61  1  0  0  0  0
 57 58  1  0  0  0  0
 58 59  1  0  0  0  0
 58 71  1  0  0  0  0
 59 60  1  0  0  0  0
 60 61  1  0  0  0  0
 63 64  1  0  0  0  0
 64 65  1  0  0  0  0
 67 68  4  0  0  0  0
 67 72  4  0  0  0  0
 68 69  4  0  0  0  0
 69 70  4  0  0  0  0
 70 71  4  0  0  0  0
 71 72  4  0  0  0  0
M  END
$$$$
