mol_ETKDG0_319
  PyMOL3.1          3D                             0

 73 79  0  0  0  0  0  0  0  0999 V2000
    4.3887    2.5000   -1.5049 C   0  0  0  0  0  0  0  0  0  0  0  0
    4.9146    1.4512   -2.3633 C   0  0  0  0  0  0  0  0  0  0  0  0
    6.2456    1.8234   -2.8039 O   0  0  0  0  0  0  0  0  0  0  0  0
    7.2983    1.2066   -2.1293 C   0  0  0  0  0  0  0  0  0  0  0  0
    4.0896    1.1361   -3.5689 C   0  0  0  0  0  0  0  0  0  0  0  0
    4.5336    1.5651   -4.7321 N   0  0  0  0  0  0  0  0  0  0  0  0
    3.9131    1.2646   -5.8868 C   0  0  0  0  0  0  0  0  0  0  0  0
    2.7359    0.5168   -5.9108 C   0  0  0  0  0  0  0  0  0  0  0  0
    2.2213    0.0663   -4.6936 C   0  0  0  0  0  0  0  0  0  0  0  0
    2.8856    0.4057   -3.5171 C   0  0  0  0  0  0  0  0  0  0  0  0
    2.2925   -0.0179   -2.2793 C   0  0  0  0  0  0  0  0  0  0  0  0
    2.4646   -1.2578   -1.7658 N   0  0  0  0  0  0  0  0  0  0  0  0
    3.2513   -2.4117   -2.3524 C   0  0  0  0  0  0  0  0  0  0  0  0
    4.6232   -2.5548   -1.8050 C   0  0  0  0  0  0  0  0  0  0  0  0
    1.4913    0.7879   -1.4177 C   0  0  0  0  0  0  0  0  0  0  0  0
    1.0489    2.2250   -1.4929 C   0  0  0  0  0  0  0  0  0  0  0  0
   -0.2336    2.5265   -2.3711 C   0  0  0  0  0  0  0  0  0  0  0  0
    0.0072    2.3595   -3.8500 C   0  0  0  0  0  0  0  0  0  0  0  0
   -0.5501    3.9878   -2.2170 C   0  0  0  0  0  0  0  0  0  0  0  0
   -1.4210    1.6780   -1.9345 C   0  0  0  0  0  0  0  0  0  0  0  0
   -2.2280    2.3172   -0.8177 O   0  0  0  0  0  0  0  0  0  0  0  0
   -3.6339    2.5251   -0.8626 C   0  0  0  0  0  0  0  0  0  0  0  0
   -4.3163    3.1681    0.3327 C   0  0  0  0  0  0  0  0  0  0  0  0
   -3.3718    3.9473    1.0823 N   0  0  0  0  0  0  0  0  0  0  0  0
   -3.8620    4.6420    2.1874 N   0  0  0  0  0  0  0  0  0  0  0  0
   -3.3078    4.4903    3.4225 C   0  0  0  0  0  0  0  0  0  0  0  0
   -2.1572    3.5451    3.5718 C   0  0  0  0  0  0  0  0  0  0  0  0
   -1.1615    4.0765    4.4771 N   0  0  0  0  0  0  0  0  0  0  0  0
    0.0162    4.5624    4.0580 C   0  0  0  0  0  0  0  0  0  0  0  0
    1.0072    4.8938    5.1265 C   0  0  0  0  0  0  0  0  0  0  0  0
    1.1678    6.4086    5.4442 C   0  0  0  0  0  0  0  0  0  0  0  0
    1.8060    6.6490    6.7748 C   0  0  0  0  0  0  0  0  0  0  0  0
   -0.0521    7.2250    5.2091 C   0  0  0  0  0  0  0  0  0  0  0  0
    2.2688    4.2935    4.6916 N   0  0  0  0  0  0  0  0  0  0  0  0
    2.4531    2.9537    4.9371 C   0  0  0  0  0  0  0  0  0  0  0  0
    3.6289    2.1404    4.4655 C   0  0  0  0  0  0  0  0  0  0  0  0
    3.7143    0.7897    5.1877 C   0  0  0  0  0  0  0  0  0  0  0  0
    4.7839   -0.0687    4.6098 C   0  0  0  0  0  0  0  0  0  0  0  0
    4.6509   -0.1566    3.1499 N   0  0  0  0  0  0  0  0  0  0  0  0
    4.6227   -1.3358    2.4742 C   0  0  0  0  0  0  0  0  0  0  0  0
    4.2422   -2.5115    3.0820 C   0  0  0  0  0  0  0  0  0  0  0  0
    3.9654   -3.5612    3.4926 C   0  0  0  0  0  0  0  0  0  0  0  0
    3.5798   -4.7260    4.1949 C   0  0  0  0  0  0  0  0  0  0  0  0
    4.4504   -5.8339    3.9632 N   0  0  0  0  0  0  0  0  0  0  0  0
    5.8264   -5.6086    3.7976 C   0  0  0  0  0  0  0  0  0  0  0  0
    4.0811   -7.1390    4.3368 C   0  0  0  0  0  0  0  0  0  0  0  0
    2.1708   -5.0759    3.7818 C   0  0  0  0  0  0  0  0  0  0  0  0
    3.5501   -4.4098    5.6957 C   0  0  0  0  0  0  0  0  0  0  0  0
    4.8844   -1.3476    1.2664 O   0  0  0  0  0  0  0  0  0  0  0  0
    4.5292    1.0732    2.4293 C   0  0  0  0  0  0  0  0  0  0  0  0
    3.4139    1.8890    2.9810 C   0  0  0  0  0  0  0  0  0  0  0  0
    1.5622    2.3624    5.5737 O   0  0  0  0  0  0  0  0  0  0  0  0
    3.2230    5.1003    3.9119 C   0  0  0  0  0  0  0  0  0  0  0  0
    0.2900    4.5843    2.8669 O   0  0  0  0  0  0  0  0  0  0  0  0
   -2.6681    2.1553    4.1228 C   0  0  0  0  0  0  0  0  0  0  0  0
   -1.5585    1.0753    4.2393 C   0  0  0  0  0  0  0  0  0  0  0  0
   -1.3311    0.5197    2.8849 C   0  0  0  0  0  0  0  0  0  0  0  0
   -0.3715   -0.5527    2.9022 N   0  0  0  0  0  0  0  0  0  0  0  0
   -0.6566   -1.6282    3.8653 C   0  0  0  0  0  0  0  0  0  0  0  0
   -1.0157   -1.0420    5.2367 C   0  0  0  0  0  0  0  0  0  0  0  0
   -2.0285    0.0222    5.1193 O   0  0  0  0  0  0  0  0  0  0  0  0
   -3.7520    5.0809    4.4159 O   0  0  0  0  0  0  0  0  0  0  0  0
   -4.9460    5.5860    1.9154 C   0  0  0  0  0  0  0  0  0  0  0  0
   -6.0438    4.8675    1.1043 C   0  0  0  0  0  0  0  0  0  0  0  0
   -5.4711    4.1252   -0.1027 C   0  0  0  0  0  0  0  0  0  0  0  0
   -4.3616    2.1950   -1.8240 O   0  0  0  0  0  0  0  0  0  0  0  0
    1.2070   -0.0680   -0.3497 C   0  0  0  0  0  0  0  0  0  0  0  0
    1.8286   -1.2933   -0.5926 C   0  0  0  0  0  0  0  0  0  0  0  0
    1.7072   -2.3311    0.3740 C   0  0  0  0  0  0  0  0  0  0  0  0
    0.9808   -2.0368    1.5316 C   0  0  0  0  0  0  0  0  0  0  0  0
    0.3652   -0.8035    1.7442 C   0  0  0  0  0  0  0  0  0  0  0  0
    0.4796    0.2112    0.7941 C   0  0  0  0  0  0  0  0  0  0  0  0
    4.8231    2.8086    4.6823 F   0  0  0  0  0  0  0  0  0  0  0  0
  1  2  1  0  0  0  0
  2  3  1  0  0  0  0
  2  5  1  0  0  0  0
  3  4  1  0  0  0  0
  5  6  4  0  0  0  0
  5 10  4  0  0  0  0
  6  7  4  0  0  0  0
  7  8  4  0  0  0  0
  8  9  4  0  0  0  0
  9 10  4  0  0  0  0
 10 11  1  0  0  0  0
 11 12  4  0  0  0  0
 11 15  4  0  0  0  0
 12 13  1  0  0  0  0
 12 68  4  0  0  0  0
 13 14  1  0  0  0  0
 15 16  1  0  0  0  0
 15 67  4  0  0  0  0
 16 17  1  0  0  0  0
 17 18  1  0  0  0  0
 17 19  1  0  0  0  0
 17 20  1  0  0  0  0
 20 21  1  0  0  0  0
 21 22  1  0  0  0  0
 22 23  1  0  0  0  0
 22 66  2  0  0  0  0
 23 24  1  0  0  0  0
 23 65  1  0  0  0  0
 24 25  1  0  0  0  0
 25 26  1  0  0  0  0
 25 63  1  0  0  0  0
 26 27  1  0  0  0  0
 26 62  2  0  0  0  0
 27 28  1  0  0  0  0
 27 55  1  0  0  0  0
 28 29  1  0  0  0  0
 29 30  1  0  0  0  0
 29 54  2  0  0  0  0
 30 31  1  0  0  0  0
 30 34  1  0  0  0  0
 31 32  1  0  0  0  0
 31 33  1  0  0  0  0
 34 35  1  0  0  0  0
 34 53  1  0  0  0  0
 35 36  1  0  0  0  0
 35 52  2  0  0  0  0
 36 37  1  0  0  0  0
 36 51  1  0  0  0  0
 36 73  1  0  0  0  0
 37 38  1  0  0  0  0
 38 39  1  0  0  0  0
 39 40  1  0  0  0  0
 39 50  1  0  0  0  0
 40 41  1  0  0  0  0
 40 49  2  0  0  0  0
 41 42  1  0  0  0  0
 42 43  1  0  0  0  0
 43 44  1  0  0  0  0
 43 47  1  0  0  0  0
 43 48  1  0  0  0  0
 44 45  1  0  0  0  0
 44 46  1  0  0  0  0
 50 51  1  0  0  0  0
 55 56  1  0  0  0  0
 56 57  1  0  0  0  0
 56 61  1  0  0  0  0
 57 58  1  0  0  0  0
 58 59  1  0  0  0  0
 58 71  1  0  0  0  0
 59 60  1  0  0  0  0
 60 61  1  0  0  0  0
 63 64  1  0  0  0  0
 64 65  1  0  0  0  0
 67 68  4  0  0  0  0
 67 72  4  0  0  0  0
 68 69  4  0  0  0  0
 69 70  4  0  0  0  0
 70 71  4  0  0  0  0
 71 72  4  0  0  0  0
M  END
$$$$
