mol_ETKDG2_147
  PyMOL3.1          3D                             0

 73 79  0  0  0  0  0  0  0  0999 V2000
    3.0369   -0.2125    2.8277 C   0  0  0  0  0  0  0  0  0  0  0  0
    3.1238   -0.4785    1.3695 C   0  0  0  0  0  0  0  0  0  0  0  0
    3.7140    0.5590    0.6054 O   0  0  0  0  0  0  0  0  0  0  0  0
    2.9434    1.7250    0.4118 C   0  0  0  0  0  0  0  0  0  0  0  0
    3.8704   -1.7168    1.0677 C   0  0  0  0  0  0  0  0  0  0  0  0
    5.1845   -1.7038    1.2332 N   0  0  0  0  0  0  0  0  0  0  0  0
    5.9271   -2.8153    1.0406 C   0  0  0  0  0  0  0  0  0  0  0  0
    5.3443   -4.0311    0.6654 C   0  0  0  0  0  0  0  0  0  0  0  0
    3.9545   -4.0682    0.4859 C   0  0  0  0  0  0  0  0  0  0  0  0
    3.2213   -2.8866    0.6675 C   0  0  0  0  0  0  0  0  0  0  0  0
    1.7950   -2.9218    0.4267 C   0  0  0  0  0  0  0  0  0  0  0  0
    0.9030   -3.3207    1.3652 N   0  0  0  0  0  0  0  0  0  0  0  0
    1.1904   -3.7531    2.7813 C   0  0  0  0  0  0  0  0  0  0  0  0
    1.0450   -5.1982    2.9880 C   0  0  0  0  0  0  0  0  0  0  0  0
    1.1199   -2.4946   -0.7638 C   0  0  0  0  0  0  0  0  0  0  0  0
    1.6210   -1.8304   -2.0315 C   0  0  0  0  0  0  0  0  0  0  0  0
    2.0440   -2.7551   -3.2624 C   0  0  0  0  0  0  0  0  0  0  0  0
    3.1455   -3.7345   -2.8970 C   0  0  0  0  0  0  0  0  0  0  0  0
    2.6464   -1.8366   -4.3033 C   0  0  0  0  0  0  0  0  0  0  0  0
    0.8729   -3.5598   -3.9047 C   0  0  0  0  0  0  0  0  0  0  0  0
   -0.0040   -2.7899   -4.8792 O   0  0  0  0  0  0  0  0  0  0  0  0
   -0.3430   -3.2128   -6.2058 C   0  0  0  0  0  0  0  0  0  0  0  0
   -1.3257   -2.3824   -7.0286 C   0  0  0  0  0  0  0  0  0  0  0  0
   -1.4582   -1.0769   -6.4812 N   0  0  0  0  0  0  0  0  0  0  0  0
   -2.3067   -0.1656   -7.1161 N   0  0  0  0  0  0  0  0  0  0  0  0
   -3.2709    0.5119   -6.4199 C   0  0  0  0  0  0  0  0  0  0  0  0
   -3.4036    0.2512   -4.9520 C   0  0  0  0  0  0  0  0  0  0  0  0
   -3.5807    1.4780   -4.1998 N   0  0  0  0  0  0  0  0  0  0  0  0
   -2.5791    2.0563   -3.4955 C   0  0  0  0  0  0  0  0  0  0  0  0
   -2.9760    3.2328   -2.6684 C   0  0  0  0  0  0  0  0  0  0  0  0
   -2.6496    4.6248   -3.2744 C   0  0  0  0  0  0  0  0  0  0  0  0
   -3.5408    5.7051   -2.7637 C   0  0  0  0  0  0  0  0  0  0  0  0
   -2.4267    4.6536   -4.7430 C   0  0  0  0  0  0  0  0  0  0  0  0
   -2.3709    3.0752   -1.3425 N   0  0  0  0  0  0  0  0  0  0  0  0
   -3.0227    2.3033   -0.4008 C   0  0  0  0  0  0  0  0  0  0  0  0
   -2.5098    2.0467    0.9950 C   0  0  0  0  0  0  0  0  0  0  0  0
   -1.4163    1.0113    0.8989 C   0  0  0  0  0  0  0  0  0  0  0  0
   -0.7876    0.8131    2.2158 C   0  0  0  0  0  0  0  0  0  0  0  0
   -1.7924    0.4275    3.2102 N   0  0  0  0  0  0  0  0  0  0  0  0
   -1.5276   -0.6514    4.0053 C   0  0  0  0  0  0  0  0  0  0  0  0
   -2.4548   -1.2416    4.8536 C   0  0  0  0  0  0  0  0  0  0  0  0
   -3.0622   -1.8129    5.6669 C   0  0  0  0  0  0  0  0  0  0  0  0
   -3.9100   -2.4089    6.6115 C   0  0  0  0  0  0  0  0  0  0  0  0
   -3.9883   -1.5654    7.7676 N   0  0  0  0  0  0  0  0  0  0  0  0
   -2.8300   -1.3693    8.5597 C   0  0  0  0  0  0  0  0  0  0  0  0
   -5.0883   -0.7251    8.0030 C   0  0  0  0  0  0  0  0  0  0  0  0
   -5.2737   -2.6459    5.9888 C   0  0  0  0  0  0  0  0  0  0  0  0
   -3.3825   -3.7774    7.0332 C   0  0  0  0  0  0  0  0  0  0  0  0
   -0.3990   -1.1504    3.9648 O   0  0  0  0  0  0  0  0  0  0  0  0
   -2.9901    1.2332    3.2916 C   0  0  0  0  0  0  0  0  0  0  0  0
   -3.5844    1.5240    1.9689 C   0  0  0  0  0  0  0  0  0  0  0  0
   -4.1018    1.7730   -0.7385 O   0  0  0  0  0  0  0  0  0  0  0  0
   -1.0361    3.6590   -1.1020 C   0  0  0  0  0  0  0  0  0  0  0  0
   -1.4602    1.5653   -3.4730 O   0  0  0  0  0  0  0  0  0  0  0  0
   -4.5926   -0.7417   -4.6687 C   0  0  0  0  0  0  0  0  0  0  0  0
   -4.7606   -1.1060   -3.1737 C   0  0  0  0  0  0  0  0  0  0  0  0
   -3.6595   -2.0361   -2.7978 C   0  0  0  0  0  0  0  0  0  0  0  0
   -3.7751   -2.4862   -1.4375 N   0  0  0  0  0  0  0  0  0  0  0  0
   -5.0865   -3.0460   -1.0796 C   0  0  0  0  0  0  0  0  0  0  0  0
   -6.2302   -2.1539   -1.5973 C   0  0  0  0  0  0  0  0  0  0  0  0
   -6.0388   -1.7680   -3.0019 O   0  0  0  0  0  0  0  0  0  0  0  0
   -4.0512    1.3067   -6.9702 O   0  0  0  0  0  0  0  0  0  0  0  0
   -2.0473    0.0638   -8.5381 C   0  0  0  0  0  0  0  0  0  0  0  0
   -1.8951   -1.2884   -9.2654 C   0  0  0  0  0  0  0  0  0  0  0  0
   -0.9448   -2.2524   -8.5360 C   0  0  0  0  0  0  0  0  0  0  0  0
    0.1296   -4.2335   -6.7207 O   0  0  0  0  0  0  0  0  0  0  0  0
   -0.2387   -2.7182   -0.4595 C   0  0  0  0  0  0  0  0  0  0  0  0
   -0.3271   -3.2122    0.8425 C   0  0  0  0  0  0  0  0  0  0  0  0
   -1.6178   -3.4785    1.4131 C   0  0  0  0  0  0  0  0  0  0  0  0
   -2.7312   -3.2165    0.6220 C   0  0  0  0  0  0  0  0  0  0  0  0
   -2.6267   -2.7270   -0.6818 C   0  0  0  0  0  0  0  0  0  0  0  0
   -1.3589   -2.4614   -1.2416 C   0  0  0  0  0  0  0  0  0  0  0  0
   -2.0522    3.2288    1.5550 F   0  0  0  0  0  0  0  0  0  0  0  0
  1  2  1  0  0  0  0
  2  3  1  0  0  0  0
  2  5  1  0  0  0  0
  3  4  1  0  0  0  0
  5  6  4  0  0  0  0
  5 10  4  0  0  0  0
  6  7  4  0  0  0  0
  7  8  4  0  0  0  0
  8  9  4  0  0  0  0
  9 10  4  0  0  0  0
 10 11  1  0  0  0  0
 11 12  4  0  0  0  0
 11 15  4  0  0  0  0
 12 13  1  0  0  0  0
 12 68  4  0  0  0  0
 13 14  1  0  0  0  0
 15 16  1  0  0  0  0
 15 67  4  0  0  0  0
 16 17  1  0  0  0  0
 17 18  1  0  0  0  0
 17 19  1  0  0  0  0
 17 20  1  0  0  0  0
 20 21  1  0  0  0  0
 21 22  1  0  0  0  0
 22 23  1  0  0  0  0
 22 66  2  0  0  0  0
 23 24  1  0  0  0  0
 23 65  1  0  0  0  0
 24 25  1  0  0  0  0
 25 26  1  0  0  0  0
 25 63  1  0  0  0  0
 26 27  1  0  0  0  0
 26 62  2  0  0  0  0
 27 28  1  0  0  0  0
 27 55  1  0  0  0  0
 28 29  1  0  0  0  0
 29 30  1  0  0  0  0
 29 54  2  0  0  0  0
 30 31  1  0  0  0  0
 30 34  1  0  0  0  0
 31 32  1  0  0  0  0
 31 33  1  0  0  0  0
 34 35  1  0  0  0  0
 34 53  1  0  0  0  0
 35 36  1  0  0  0  0
 35 52  2  0  0  0  0
 36 37  1  0  0  0  0
 36 51  1  0  0  0  0
 36 73  1  0  0  0  0
 37 38  1  0  0  0  0
 38 39  1  0  0  0  0
 39 40  1  0  0  0  0
 39 50  1  0  0  0  0
 40 41  1  0  0  0  0
 40 49  2  0  0  0  0
 41 42  1  0  0  0  0
 42 43  1  0  0  0  0
 43 44  1  0  0  0  0
 43 47  1  0  0  0  0
 43 48  1  0  0  0  0
 44 45  1  0  0  0  0
 44 46  1  0  0  0  0
 50 51  1  0  0  0  0
 55 56  1  0  0  0  0
 56 57  1  0  0  0  0
 56 61  1  0  0  0  0
 57 58  1  0  0  0  0
 58 59  1  0  0  0  0
 58 71  1  0  0  0  0
 59 60  1  0  0  0  0
 60 61  1  0  0  0  0
 63 64  1  0  0  0  0
 64 65  1  0  0  0  0
 67 68  4  0  0  0  0
 67 72  4  0  0  0  0
 68 69  4  0  0  0  0
 69 70  4  0  0  0  0
 70 71  4  0  0  0  0
 71 72  4  0  0  0  0
M  END
$$$$
