mol_ETKDG1_98
  PyMOL3.1          3D                             0

 73 79  0  0  0  0  0  0  0  0999 V2000
    5.1951    3.3194   -1.9229 C   0  0  0  0  0  0  0  0  0  0  0  0
    4.5226    2.9874   -0.6432 C   0  0  0  0  0  0  0  0  0  0  0  0
    4.1101    4.0984    0.1351 O   0  0  0  0  0  0  0  0  0  0  0  0
    3.0026    4.8347   -0.3324 C   0  0  0  0  0  0  0  0  0  0  0  0
    5.3611    2.1575    0.2323 C   0  0  0  0  0  0  0  0  0  0  0  0
    6.3776    2.7442    0.8446 N   0  0  0  0  0  0  0  0  0  0  0  0
    7.2193    2.0408    1.6305 C   0  0  0  0  0  0  0  0  0  0  0  0
    7.0666    0.6648    1.8189 C   0  0  0  0  0  0  0  0  0  0  0  0
    6.0069    0.0221    1.1667 C   0  0  0  0  0  0  0  0  0  0  0  0
    5.1325    0.7962    0.3830 C   0  0  0  0  0  0  0  0  0  0  0  0
    4.0274    0.1215   -0.2634 C   0  0  0  0  0  0  0  0  0  0  0  0
    4.1762   -0.6135   -1.3916 N   0  0  0  0  0  0  0  0  0  0  0  0
    5.4314   -0.8250   -2.1942 C   0  0  0  0  0  0  0  0  0  0  0  0
    6.0219   -2.1587   -1.9945 C   0  0  0  0  0  0  0  0  0  0  0  0
    2.6566    0.1648    0.1302 C   0  0  0  0  0  0  0  0  0  0  0  0
    1.9424    0.9440    1.2034 C   0  0  0  0  0  0  0  0  0  0  0  0
    1.8506    0.2499    2.6295 C   0  0  0  0  0  0  0  0  0  0  0  0
    3.2138    0.0287    3.2451 C   0  0  0  0  0  0  0  0  0  0  0  0
    1.1480    1.2094    3.5541 C   0  0  0  0  0  0  0  0  0  0  0  0
    1.1106   -1.0917    2.5607 C   0  0  0  0  0  0  0  0  0  0  0  0
   -0.4074   -0.9890    2.6127 O   0  0  0  0  0  0  0  0  0  0  0  0
   -1.2257   -1.6476    3.5817 C   0  0  0  0  0  0  0  0  0  0  0  0
   -2.7448   -1.5367    3.4571 C   0  0  0  0  0  0  0  0  0  0  0  0
   -3.0915   -0.3037    2.8056 N   0  0  0  0  0  0  0  0  0  0  0  0
   -4.4471   -0.0161    2.6660 N   0  0  0  0  0  0  0  0  0  0  0  0
   -5.0005    0.2217    1.4401 C   0  0  0  0  0  0  0  0  0  0  0  0
   -4.1136    0.1252    0.2383 C   0  0  0  0  0  0  0  0  0  0  0  0
   -4.4318    1.0978   -0.7850 N   0  0  0  0  0  0  0  0  0  0  0  0
   -3.7403    2.2323   -0.9554 C   0  0  0  0  0  0  0  0  0  0  0  0
   -4.0560    3.0176   -2.1841 C   0  0  0  0  0  0  0  0  0  0  0  0
   -5.0245    4.2161   -1.9885 C   0  0  0  0  0  0  0  0  0  0  0  0
   -5.6547    4.6754   -3.2557 C   0  0  0  0  0  0  0  0  0  0  0  0
   -5.9600    4.1067   -0.8400 C   0  0  0  0  0  0  0  0  0  0  0  0
   -2.7713    3.4442   -2.7469 N   0  0  0  0  0  0  0  0  0  0  0  0
   -2.0979    2.5801   -3.5908 C   0  0  0  0  0  0  0  0  0  0  0  0
   -0.7455    2.8492   -4.2058 C   0  0  0  0  0  0  0  0  0  0  0  0
   -0.5599    2.2222   -5.5947 C   0  0  0  0  0  0  0  0  0  0  0  0
    0.8318    2.4767   -6.0936 C   0  0  0  0  0  0  0  0  0  0  0  0
    1.8458    2.0966   -5.0827 N   0  0  0  0  0  0  0  0  0  0  0  0
    2.9587    1.3469   -5.3413 C   0  0  0  0  0  0  0  0  0  0  0  0
    3.2470    0.8818   -6.6003 C   0  0  0  0  0  0  0  0  0  0  0  0
    3.6718    0.4640   -7.5942 C   0  0  0  0  0  0  0  0  0  0  0  0
    4.0655   -0.0404   -8.8374 C   0  0  0  0  0  0  0  0  0  0  0  0
    5.2696   -0.8077   -8.7490 N   0  0  0  0  0  0  0  0  0  0  0  0
    6.2561   -0.4692   -7.8060 C   0  0  0  0  0  0  0  0  0  0  0  0
    5.6605   -1.7230   -9.7427 C   0  0  0  0  0  0  0  0  0  0  0  0
    4.2853    1.1255   -9.8076 C   0  0  0  0  0  0  0  0  0  0  0  0
    2.9387   -0.8847   -9.3993 C   0  0  0  0  0  0  0  0  0  0  0  0
    3.7502    1.0658   -4.4144 O   0  0  0  0  0  0  0  0  0  0  0  0
    1.6539    2.5660   -3.7495 C   0  0  0  0  0  0  0  0  0  0  0  0
    0.2977    2.2779   -3.2549 C   0  0  0  0  0  0  0  0  0  0  0  0
   -2.6370    1.4844   -3.8417 O   0  0  0  0  0  0  0  0  0  0  0  0
   -2.1913    4.7167   -2.2849 C   0  0  0  0  0  0  0  0  0  0  0  0
   -2.8256    2.5125   -0.2000 O   0  0  0  0  0  0  0  0  0  0  0  0
   -4.2547   -1.3150   -0.3879 C   0  0  0  0  0  0  0  0  0  0  0  0
   -3.3426   -1.5748   -1.6084 C   0  0  0  0  0  0  0  0  0  0  0  0
   -1.9733   -1.8002   -1.0812 C   0  0  0  0  0  0  0  0  0  0  0  0
   -1.0558   -2.1278   -2.1397 N   0  0  0  0  0  0  0  0  0  0  0  0
   -1.4803   -3.2433   -3.0026 C   0  0  0  0  0  0  0  0  0  0  0  0
   -2.9552   -3.0805   -3.4246 C   0  0  0  0  0  0  0  0  0  0  0  0
   -3.8083   -2.7838   -2.2697 O   0  0  0  0  0  0  0  0  0  0  0  0
   -6.2101    0.4627    1.2936 O   0  0  0  0  0  0  0  0  0  0  0  0
   -5.2092    0.0629    3.9136 C   0  0  0  0  0  0  0  0  0  0  0  0
   -4.9533   -1.2340    4.7148 C   0  0  0  0  0  0  0  0  0  0  0  0
   -3.4599   -1.5530    4.8463 C   0  0  0  0  0  0  0  0  0  0  0  0
   -0.7720   -2.3324    4.5203 O   0  0  0  0  0  0  0  0  0  0  0  0
    2.0204   -0.6571   -0.8139 C   0  0  0  0  0  0  0  0  0  0  0  0
    2.9768   -1.1016   -1.7236 C   0  0  0  0  0  0  0  0  0  0  0  0
    2.5741   -1.9166   -2.8321 C   0  0  0  0  0  0  0  0  0  0  0  0
    1.2235   -2.2283   -2.9298 C   0  0  0  0  0  0  0  0  0  0  0  0
    0.2859   -1.7805   -1.9993 C   0  0  0  0  0  0  0  0  0  0  0  0
    0.6761   -0.9668   -0.9283 C   0  0  0  0  0  0  0  0  0  0  0  0
   -0.5260    4.1856   -4.3880 F   0  0  0  0  0  0  0  0  0  0  0  0
  1  2  1  0  0  0  0
  2  3  1  0  0  0  0
  2  5  1  0  0  0  0
  3  4  1  0  0  0  0
  5  6  4  0  0  0  0
  5 10  4  0  0  0  0
  6  7  4  0  0  0  0
  7  8  4  0  0  0  0
  8  9  4  0  0  0  0
  9 10  4  0  0  0  0
 10 11  1  0  0  0  0
 11 12  4  0  0  0  0
 11 15  4  0  0  0  0
 12 13  1  0  0  0  0
 12 68  4  0  0  0  0
 13 14  1  0  0  0  0
 15 16  1  0  0  0  0
 15 67  4  0  0  0  0
 16 17  1  0  0  0  0
 17 18  1  0  0  0  0
 17 19  1  0  0  0  0
 17 20  1  0  0  0  0
 20 21  1  0  0  0  0
 21 22  1  0  0  0  0
 22 23  1  0  0  0  0
 22 66  2  0  0  0  0
 23 24  1  0  0  0  0
 23 65  1  0  0  0  0
 24 25  1  0  0  0  0
 25 26  1  0  0  0  0
 25 63  1  0  0  0  0
 26 27  1  0  0  0  0
 26 62  2  0  0  0  0
 27 28  1  0  0  0  0
 27 55  1  0  0  0  0
 28 29  1  0  0  0  0
 29 30  1  0  0  0  0
 29 54  2  0  0  0  0
 30 31  1  0  0  0  0
 30 34  1  0  0  0  0
 31 32  1  0  0  0  0
 31 33  1  0  0  0  0
 34 35  1  0  0  0  0
 34 53  1  0  0  0  0
 35 36  1  0  0  0  0
 35 52  2  0  0  0  0
 36 37  1  0  0  0  0
 36 51  1  0  0  0  0
 36 73  1  0  0  0  0
 37 38  1  0  0  0  0
 38 39  1  0  0  0  0
 39 40  1  0  0  0  0
 39 50  1  0  0  0  0
 40 41  1  0  0  0  0
 40 49  2  0  0  0  0
 41 42  1  0  0  0  0
 42 43  1  0  0  0  0
 43 44  1  0  0  0  0
 43 47  1  0  0  0  0
 43 48  1  0  0  0  0
 44 45  1  0  0  0  0
 44 46  1  0  0  0  0
 50 51  1  0  0  0  0
 55 56  1  0  0  0  0
 56 57  1  0  0  0  0
 56 61  1  0  0  0  0
 57 58  1  0  0  0  0
 58 59  1  0  0  0  0
 58 71  1  0  0  0  0
 59 60  1  0  0  0  0
 60 61  1  0  0  0  0
 63 64  1  0  0  0  0
 64 65  1  0  0  0  0
 67 68  4  0  0  0  0
 67 72  4  0  0  0  0
 68 69  4  0  0  0  0
 69 70  4  0  0  0  0
 70 71  4  0  0  0  0
 71 72  4  0  0  0  0
M  END
$$$$
