mol_bioactive_32
  PyMOL3.1          3D                             0

 73 79  0  0  0  0  0  0  0  0999 V2000
   -2.6020   -6.4272    2.3625 C   0  0  0  0  0  0  0  0  0  0  0  0
   -3.6678   -6.0235    3.2892 C   0  0  0  0  0  0  0  0  0  0  0  0
   -3.9689   -6.9781    4.3219 O   0  0  0  0  0  0  0  0  0  0  0  0
   -3.1569   -6.9909    5.4610 C   0  0  0  0  0  0  0  0  0  0  0  0
   -4.9427   -5.7251    2.5959 C   0  0  0  0  0  0  0  0  0  0  0  0
   -5.6400   -6.7394    2.1133 N   0  0  0  0  0  0  0  0  0  0  0  0
   -6.8406   -6.5509    1.5256 C   0  0  0  0  0  0  0  0  0  0  0  0
   -7.3855   -5.2751    1.3664 C   0  0  0  0  0  0  0  0  0  0  0  0
   -6.6585   -4.1911    1.8546 C   0  0  0  0  0  0  0  0  0  0  0  0
   -5.4081   -4.4208    2.4359 C   0  0  0  0  0  0  0  0  0  0  0  0
   -4.6573   -3.2782    2.8885 C   0  0  0  0  0  0  0  0  0  0  0  0
   -4.7672   -2.7940    4.1445 N   0  0  0  0  0  0  0  0  0  0  0  0
   -5.5976   -3.3479    5.2747 C   0  0  0  0  0  0  0  0  0  0  0  0
   -6.8203   -2.5894    5.5324 C   0  0  0  0  0  0  0  0  0  0  0  0
   -3.6820   -2.5449    2.1458 C   0  0  0  0  0  0  0  0  0  0  0  0
   -3.0921   -2.7644    0.7687 C   0  0  0  0  0  0  0  0  0  0  0  0
   -3.7972   -2.0365   -0.4602 C   0  0  0  0  0  0  0  0  0  0  0  0
   -2.9983   -2.3939   -1.7062 C   0  0  0  0  0  0  0  0  0  0  0  0
   -5.1606   -2.5791   -0.7183 C   0  0  0  0  0  0  0  0  0  0  0  0
   -3.8737   -0.5128   -0.3117 C   0  0  0  0  0  0  0  0  0  0  0  0
   -2.7393    0.2979   -0.8675 O   0  0  0  0  0  0  0  0  0  0  0  0
   -2.8905    1.4787   -1.6652 C   0  0  0  0  0  0  0  0  0  0  0  0
   -1.6375    2.2518   -2.0587 C   0  0  0  0  0  0  0  0  0  0  0  0
   -0.4810    1.4373   -1.8701 N   0  0  0  0  0  0  0  0  0  0  0  0
    0.7563    1.9702   -2.2076 N   0  0  0  0  0  0  0  0  0  0  0  0
    1.7773    2.0046   -1.2930 C   0  0  0  0  0  0  0  0  0  0  0  0
    1.5328    1.5100    0.1091 C   0  0  0  0  0  0  0  0  0  0  0  0
    2.6943    0.7838    0.6134 N   0  0  0  0  0  0  0  0  0  0  0  0
    2.8524   -0.5441    0.5557 C   0  0  0  0  0  0  0  0  0  0  0  0
    4.0584   -1.1153    1.2428 C   0  0  0  0  0  0  0  0  0  0  0  0
    5.1908   -1.5810    0.2671 C   0  0  0  0  0  0  0  0  0  0  0  0
    6.4270   -2.0310    0.9837 C   0  0  0  0  0  0  0  0  0  0  0  0
    5.4813   -0.5685   -0.7975 C   0  0  0  0  0  0  0  0  0  0  0  0
    3.5727   -2.2038    2.0853 N   0  0  0  0  0  0  0  0  0  0  0  0
    3.1028   -1.9009    3.3363 C   0  0  0  0  0  0  0  0  0  0  0  0
    2.4753   -2.9042    4.2714 C   0  0  0  0  0  0  0  0  0  0  0  0
    1.0755   -3.1558    3.7563 C   0  0  0  0  0  0  0  0  0  0  0  0
    0.3447   -4.1389    4.6239 C   0  0  0  0  0  0  0  0  0  0  0  0
    0.3316   -3.6081    5.9893 N   0  0  0  0  0  0  0  0  0  0  0  0
   -0.8499   -3.3609    6.6401 C   0  0  0  0  0  0  0  0  0  0  0  0
   -0.9134   -2.4156    7.6564 C   0  0  0  0  0  0  0  0  0  0  0  0
   -1.0433   -1.6624    8.5283 C   0  0  0  0  0  0  0  0  0  0  0  0
   -1.0125   -0.7054    9.5747 C   0  0  0  0  0  0  0  0  0  0  0  0
   -0.9614   -1.3666   10.8391 N   0  0  0  0  0  0  0  0  0  0  0  0
    0.2798   -1.8180   11.3435 C   0  0  0  0  0  0  0  0  0  0  0  0
   -2.1218   -1.8965   11.4371 C   0  0  0  0  0  0  0  0  0  0  0  0
   -2.2191    0.1927    9.4811 C   0  0  0  0  0  0  0  0  0  0  0  0
    0.1940    0.2020    9.4181 C   0  0  0  0  0  0  0  0  0  0  0  0
   -1.8823   -3.9199    6.2892 O   0  0  0  0  0  0  0  0  0  0  0  0
    1.6127   -3.3211    6.5693 C   0  0  0  0  0  0  0  0  0  0  0  0
    2.3824   -2.3815    5.7133 C   0  0  0  0  0  0  0  0  0  0  0  0
    3.1711   -0.7142    3.7020 O   0  0  0  0  0  0  0  0  0  0  0  0
    3.4752   -3.5593    1.5102 C   0  0  0  0  0  0  0  0  0  0  0  0
    1.9764   -1.2340    0.0736 O   0  0  0  0  0  0  0  0  0  0  0  0
    1.2209    2.7359    1.0512 C   0  0  0  0  0  0  0  0  0  0  0  0
    0.3531    2.6791    2.3442 C   0  0  0  0  0  0  0  0  0  0  0  0
   -0.3751    1.4282    2.5335 C   0  0  0  0  0  0  0  0  0  0  0  0
   -1.0524    1.2792    3.8027 N   0  0  0  0  0  0  0  0  0  0  0  0
   -0.7720    2.1896    4.8673 C   0  0  0  0  0  0  0  0  0  0  0  0
    0.4154    3.0578    4.7196 C   0  0  0  0  0  0  0  0  0  0  0  0
    1.1681    2.9998    3.4850 O   0  0  0  0  0  0  0  0  0  0  0  0
    2.8843    2.4932   -1.5816 O   0  0  0  0  0  0  0  0  0  0  0  0
    0.8918    2.4223   -3.5897 C   0  0  0  0  0  0  0  0  0  0  0  0
   -0.2952    3.3490   -3.9374 C   0  0  0  0  0  0  0  0  0  0  0  0
   -1.6481    2.7541   -3.5341 C   0  0  0  0  0  0  0  0  0  0  0  0
   -3.9796    1.9121   -2.0568 O   0  0  0  0  0  0  0  0  0  0  0  0
   -3.2658   -1.5614    3.0549 C   0  0  0  0  0  0  0  0  0  0  0  0
   -3.9471   -1.7468    4.2557 C   0  0  0  0  0  0  0  0  0  0  0  0
   -3.6706   -0.8800    5.3558 C   0  0  0  0  0  0  0  0  0  0  0  0
   -2.7030    0.1081    5.1669 C   0  0  0  0  0  0  0  0  0  0  0  0
   -2.0178    0.2795    3.9574 C   0  0  0  0  0  0  0  0  0  0  0  0
   -2.3056   -0.5706    2.8776 C   0  0  0  0  0  0  0  0  0  0  0  0
    3.2324   -4.0631    4.3307 F   0  0  0  0  0  0  0  0  0  0  0  0
  1  2  1  0  0  0  0
  2  3  1  0  0  0  0
  2  5  1  0  0  0  0
  3  4  1  0  0  0  0
  5  6  4  0  0  0  0
  5 10  4  0  0  0  0
  6  7  4  0  0  0  0
  7  8  4  0  0  0  0
  8  9  4  0  0  0  0
  9 10  4  0  0  0  0
 10 11  1  0  0  0  0
 11 12  4  0  0  0  0
 11 15  4  0  0  0  0
 12 13  1  0  0  0  0
 12 68  4  0  0  0  0
 13 14  1  0  0  0  0
 15 16  1  0  0  0  0
 15 67  4  0  0  0  0
 16 17  1  0  0  0  0
 17 18  1  0  0  0  0
 17 19  1  0  0  0  0
 17 20  1  0  0  0  0
 20 21  1  0  0  0  0
 21 22  1  0  0  0  0
 22 23  1  0  0  0  0
 22 66  2  0  0  0  0
 23 24  1  0  0  0  0
 23 65  1  0  0  0  0
 24 25  1  0  0  0  0
 25 26  1  0  0  0  0
 25 63  1  0  0  0  0
 26 27  1  0  0  0  0
 26 62  2  0  0  0  0
 27 28  1  0  0  0  0
 27 55  1  0  0  0  0
 28 29  1  0  0  0  0
 29 30  1  0  0  0  0
 29 54  2  0  0  0  0
 30 31  1  0  0  0  0
 30 34  1  0  0  0  0
 31 32  1  0  0  0  0
 31 33  1  0  0  0  0
 34 35  1  0  0  0  0
 34 53  1  0  0  0  0
 35 36  1  0  0  0  0
 35 52  2  0  0  0  0
 36 37  1  0  0  0  0
 36 51  1  0  0  0  0
 36 73  1  0  0  0  0
 37 38  1  0  0  0  0
 38 39  1  0  0  0  0
 39 40  1  0  0  0  0
 39 50  1  0  0  0  0
 40 41  1  0  0  0  0
 40 49  2  0  0  0  0
 41 42  1  0  0  0  0
 42 43  1  0  0  0  0
 43 44  1  0  0  0  0
 43 47  1  0  0  0  0
 43 48  1  0  0  0  0
 44 45  1  0  0  0  0
 44 46  1  0  0  0  0
 50 51  1  0  0  0  0
 55 56  1  0  0  0  0
 56 57  1  0  0  0  0
 56 61  1  0  0  0  0
 57 58  1  0  0  0  0
 58 59  1  0  0  0  0
 58 71  1  0  0  0  0
 59 60  1  0  0  0  0
 60 61  1  0  0  0  0
 63 64  1  0  0  0  0
 64 65  1  0  0  0  0
 67 68  4  0  0  0  0
 67 72  4  0  0  0  0
 68 69  4  0  0  0  0
 69 70  4  0  0  0  0
 70 71  4  0  0  0  0
 71 72  4  0  0  0  0
M  END
$$$$
