mol_ETKDG2_135
  PyMOL3.1          3D                             0

 73 79  0  0  0  0  0  0  0  0999 V2000
    0.2399   -5.7120   -3.3023 C   0  0  0  0  0  0  0  0  0  0  0  0
    0.9129   -4.3937   -3.2771 C   0  0  0  0  0  0  0  0  0  0  0  0
    2.0350   -4.2976   -2.4537 O   0  0  0  0  0  0  0  0  0  0  0  0
    1.8272   -4.3571   -1.0511 C   0  0  0  0  0  0  0  0  0  0  0  0
    1.2785   -3.9150   -4.6206 C   0  0  0  0  0  0  0  0  0  0  0  0
    2.1980   -4.5873   -5.2923 N   0  0  0  0  0  0  0  0  0  0  0  0
    2.5245   -4.2479   -6.5585 C   0  0  0  0  0  0  0  0  0  0  0  0
    1.8993   -3.1816   -7.2143 C   0  0  0  0  0  0  0  0  0  0  0  0
    0.9162   -2.4597   -6.5169 C   0  0  0  0  0  0  0  0  0  0  0  0
    0.6324   -2.8198   -5.1894 C   0  0  0  0  0  0  0  0  0  0  0  0
   -0.3298   -2.0531   -4.4250 C   0  0  0  0  0  0  0  0  0  0  0  0
   -1.6662   -2.3027   -4.4341 N   0  0  0  0  0  0  0  0  0  0  0  0
   -2.3916   -3.3685   -5.2071 C   0  0  0  0  0  0  0  0  0  0  0  0
   -3.2035   -2.8476   -6.3027 C   0  0  0  0  0  0  0  0  0  0  0  0
   -0.0142   -1.0222   -3.4865 C   0  0  0  0  0  0  0  0  0  0  0  0
    1.3209   -0.4645   -3.0379 C   0  0  0  0  0  0  0  0  0  0  0  0
    1.8551    0.8056   -3.8337 C   0  0  0  0  0  0  0  0  0  0  0  0
    3.3110    1.0419   -3.4287 C   0  0  0  0  0  0  0  0  0  0  0  0
    1.8939    0.5856   -5.2996 C   0  0  0  0  0  0  0  0  0  0  0  0
    1.0311    2.0308   -3.5383 C   0  0  0  0  0  0  0  0  0  0  0  0
    1.3090    2.7746   -2.2592 O   0  0  0  0  0  0  0  0  0  0  0  0
    1.2914    4.2004   -2.1390 C   0  0  0  0  0  0  0  0  0  0  0  0
    1.4831    4.8338   -0.7758 C   0  0  0  0  0  0  0  0  0  0  0  0
    1.7365    3.8457    0.2228 N   0  0  0  0  0  0  0  0  0  0  0  0
    1.9382    4.2855    1.5310 N   0  0  0  0  0  0  0  0  0  0  0  0
    1.2009    3.7711    2.5606 C   0  0  0  0  0  0  0  0  0  0  0  0
    0.1753    2.7071    2.2639 C   0  0  0  0  0  0  0  0  0  0  0  0
    0.1123    1.7270    3.3312 N   0  0  0  0  0  0  0  0  0  0  0  0
    0.7441    0.5404    3.2840 C   0  0  0  0  0  0  0  0  0  0  0  0
    0.4695   -0.4043    4.4053 C   0  0  0  0  0  0  0  0  0  0  0  0
    1.5230   -0.4431    5.5595 C   0  0  0  0  0  0  0  0  0  0  0  0
    1.0312   -1.2189    6.7440 C   0  0  0  0  0  0  0  0  0  0  0  0
    2.0484    0.9048    5.9417 C   0  0  0  0  0  0  0  0  0  0  0  0
    0.2666   -1.7253    3.8300 N   0  0  0  0  0  0  0  0  0  0  0  0
   -0.9831   -2.0518    3.3735 C   0  0  0  0  0  0  0  0  0  0  0  0
   -1.3798   -3.3861    2.7961 C   0  0  0  0  0  0  0  0  0  0  0  0
   -2.2647   -4.1375    3.7847 C   0  0  0  0  0  0  0  0  0  0  0  0
   -2.7165   -5.4327    3.1937 C   0  0  0  0  0  0  0  0  0  0  0  0
   -3.2671   -5.2154    1.8337 N   0  0  0  0  0  0  0  0  0  0  0  0
   -4.4880   -5.6354    1.4281 C   0  0  0  0  0  0  0  0  0  0  0  0
   -5.5640   -5.7932    2.2941 C   0  0  0  0  0  0  0  0  0  0  0  0
   -6.5203   -5.9515    2.9351 C   0  0  0  0  0  0  0  0  0  0  0  0
   -7.5726   -5.9972    3.8709 C   0  0  0  0  0  0  0  0  0  0  0  0
   -7.1327   -5.4527    5.1010 N   0  0  0  0  0  0  0  0  0  0  0  0
   -7.5318   -4.1793    5.4952 C   0  0  0  0  0  0  0  0  0  0  0  0
   -6.3415   -6.2120    5.9799 C   0  0  0  0  0  0  0  0  0  0  0  0
   -8.0398   -7.4232    4.0962 C   0  0  0  0  0  0  0  0  0  0  0  0
   -8.7645   -5.2173    3.3551 C   0  0  0  0  0  0  0  0  0  0  0  0
   -4.6674   -5.8178    0.2086 O   0  0  0  0  0  0  0  0  0  0  0  0
   -2.4544   -4.4918    0.9030 C   0  0  0  0  0  0  0  0  0  0  0  0
   -2.0954   -3.1755    1.4696 C   0  0  0  0  0  0  0  0  0  0  0  0
   -1.8745   -1.1794    3.4634 O   0  0  0  0  0  0  0  0  0  0  0  0
    1.4315   -2.6096    3.6878 C   0  0  0  0  0  0  0  0  0  0  0  0
    1.3932    0.2408    2.3017 O   0  0  0  0  0  0  0  0  0  0  0  0
   -1.2536    3.3467    2.0585 C   0  0  0  0  0  0  0  0  0  0  0  0
   -2.3557    2.3499    1.5912 C   0  0  0  0  0  0  0  0  0  0  0  0
   -2.1258    2.0476    0.1426 C   0  0  0  0  0  0  0  0  0  0  0  0
   -3.1812    1.2449   -0.4444 N   0  0  0  0  0  0  0  0  0  0  0  0
   -4.5422    1.7123   -0.1878 C   0  0  0  0  0  0  0  0  0  0  0  0
   -4.7272    2.1520    1.2738 C   0  0  0  0  0  0  0  0  0  0  0  0
   -3.6351    3.0186    1.7383 O   0  0  0  0  0  0  0  0  0  0  0  0
    1.3382    4.1847    3.7257 O   0  0  0  0  0  0  0  0  0  0  0  0
    3.0152    5.2599    1.7201 C   0  0  0  0  0  0  0  0  0  0  0  0
    2.8759    6.3963    0.6896 C   0  0  0  0  0  0  0  0  0  0  0  0
    2.6291    5.8803   -0.7376 C   0  0  0  0  0  0  0  0  0  0  0  0
    1.1405    4.9866   -3.0947 O   0  0  0  0  0  0  0  0  0  0  0  0
   -1.2739   -0.6632   -2.9601 C   0  0  0  0  0  0  0  0  0  0  0  0
   -2.2505   -1.4597   -3.5639 C   0  0  0  0  0  0  0  0  0  0  0  0
   -3.6203   -1.3167   -3.1472 C   0  0  0  0  0  0  0  0  0  0  0  0
   -3.8958   -0.3963   -2.1220 C   0  0  0  0  0  0  0  0  0  0  0  0
   -2.8889    0.3749   -1.5129 C   0  0  0  0  0  0  0  0  0  0  0  0
   -1.5622    0.2536   -1.9547 C   0  0  0  0  0  0  0  0  0  0  0  0
   -0.3082   -4.1804    2.5115 F   0  0  0  0  0  0  0  0  0  0  0  0
  1  2  1  0  0  0  0
  2  3  1  0  0  0  0
  2  5  1  0  0  0  0
  3  4  1  0  0  0  0
  5  6  4  0  0  0  0
  5 10  4  0  0  0  0
  6  7  4  0  0  0  0
  7  8  4  0  0  0  0
  8  9  4  0  0  0  0
  9 10  4  0  0  0  0
 10 11  1  0  0  0  0
 11 12  4  0  0  0  0
 11 15  4  0  0  0  0
 12 13  1  0  0  0  0
 12 68  4  0  0  0  0
 13 14  1  0  0  0  0
 15 16  1  0  0  0  0
 15 67  4  0  0  0  0
 16 17  1  0  0  0  0
 17 18  1  0  0  0  0
 17 19  1  0  0  0  0
 17 20  1  0  0  0  0
 20 21  1  0  0  0  0
 21 22  1  0  0  0  0
 22 23  1  0  0  0  0
 22 66  2  0  0  0  0
 23 24  1  0  0  0  0
 23 65  1  0  0  0  0
 24 25  1  0  0  0  0
 25 26  1  0  0  0  0
 25 63  1  0  0  0  0
 26 27  1  0  0  0  0
 26 62  2  0  0  0  0
 27 28  1  0  0  0  0
 27 55  1  0  0  0  0
 28 29  1  0  0  0  0
 29 30  1  0  0  0  0
 29 54  2  0  0  0  0
 30 31  1  0  0  0  0
 30 34  1  0  0  0  0
 31 32  1  0  0  0  0
 31 33  1  0  0  0  0
 34 35  1  0  0  0  0
 34 53  1  0  0  0  0
 35 36  1  0  0  0  0
 35 52  2  0  0  0  0
 36 37  1  0  0  0  0
 36 51  1  0  0  0  0
 36 73  1  0  0  0  0
 37 38  1  0  0  0  0
 38 39  1  0  0  0  0
 39 40  1  0  0  0  0
 39 50  1  0  0  0  0
 40 41  1  0  0  0  0
 40 49  2  0  0  0  0
 41 42  1  0  0  0  0
 42 43  1  0  0  0  0
 43 44  1  0  0  0  0
 43 47  1  0  0  0  0
 43 48  1  0  0  0  0
 44 45  1  0  0  0  0
 44 46  1  0  0  0  0
 50 51  1  0  0  0  0
 55 56  1  0  0  0  0
 56 57  1  0  0  0  0
 56 61  1  0  0  0  0
 57 58  1  0  0  0  0
 58 59  1  0  0  0  0
 58 71  1  0  0  0  0
 59 60  1  0  0  0  0
 60 61  1  0  0  0  0
 63 64  1  0  0  0  0
 64 65  1  0  0  0  0
 67 68  4  0  0  0  0
 67 72  4  0  0  0  0
 68 69  4  0  0  0  0
 69 70  4  0  0  0  0
 70 71  4  0  0  0  0
 71 72  4  0  0  0  0
M  END
$$$$
