mol_ETKDG1_75
  PyMOL3.1          3D                             0

 73 79  0  0  0  0  0  0  0  0999 V2000
   -4.1251   -1.5107    1.7007 C   0  0  0  0  0  0  0  0  0  0  0  0
   -3.2029   -0.4100    2.0858 C   0  0  0  0  0  0  0  0  0  0  0  0
   -2.9783    0.5623    1.0792 O   0  0  0  0  0  0  0  0  0  0  0  0
   -2.2471    0.1582   -0.0633 C   0  0  0  0  0  0  0  0  0  0  0  0
   -3.6489    0.2962    3.3063 C   0  0  0  0  0  0  0  0  0  0  0  0
   -4.6886    1.1103    3.2035 N   0  0  0  0  0  0  0  0  0  0  0  0
   -5.2080    1.7294    4.2891 C   0  0  0  0  0  0  0  0  0  0  0  0
   -4.6738    1.5367    5.5716 C   0  0  0  0  0  0  0  0  0  0  0  0
   -3.5735    0.6744    5.7064 C   0  0  0  0  0  0  0  0  0  0  0  0
   -3.0432    0.0751    4.5468 C   0  0  0  0  0  0  0  0  0  0  0  0
   -1.8740   -0.7698    4.6803 C   0  0  0  0  0  0  0  0  0  0  0  0
   -1.9515   -2.0858    4.9988 N   0  0  0  0  0  0  0  0  0  0  0  0
   -3.1937   -2.8988    5.2577 C   0  0  0  0  0  0  0  0  0  0  0  0
   -3.4242   -3.1850    6.6777 C   0  0  0  0  0  0  0  0  0  0  0  0
   -0.5185   -0.3908    4.4193 C   0  0  0  0  0  0  0  0  0  0  0  0
    0.0816    0.9142    3.9278 C   0  0  0  0  0  0  0  0  0  0  0  0
    0.5828    1.9247    5.0641 C   0  0  0  0  0  0  0  0  0  0  0  0
   -0.5384    2.3419    6.0050 C   0  0  0  0  0  0  0  0  0  0  0  0
    1.0173    3.2020    4.3822 C   0  0  0  0  0  0  0  0  0  0  0  0
    1.7325    1.3349    5.9064 C   0  0  0  0  0  0  0  0  0  0  0  0
    3.1042    1.4399    5.2550 O   0  0  0  0  0  0  0  0  0  0  0  0
    4.2291    2.1126    5.8364 C   0  0  0  0  0  0  0  0  0  0  0  0
    5.5746    2.0786    5.1103 C   0  0  0  0  0  0  0  0  0  0  0  0
    5.3942    1.7753    3.7173 N   0  0  0  0  0  0  0  0  0  0  0  0
    6.5437    1.7351    2.9212 N   0  0  0  0  0  0  0  0  0  0  0  0
    6.8523    0.6335    2.1622 C   0  0  0  0  0  0  0  0  0  0  0  0
    5.9001   -0.5328    2.1775 C   0  0  0  0  0  0  0  0  0  0  0  0
    5.7872   -1.1783    0.8817 N   0  0  0  0  0  0  0  0  0  0  0  0
    4.7538   -0.9846    0.0333 C   0  0  0  0  0  0  0  0  0  0  0  0
    4.7222   -1.8849   -1.1629 C   0  0  0  0  0  0  0  0  0  0  0  0
    5.2093   -1.1869   -2.4829 C   0  0  0  0  0  0  0  0  0  0  0  0
    5.3562   -2.1414   -3.6272 C   0  0  0  0  0  0  0  0  0  0  0  0
    6.4380   -0.3444   -2.2818 C   0  0  0  0  0  0  0  0  0  0  0  0
    3.3477   -2.4024   -1.2604 N   0  0  0  0  0  0  0  0  0  0  0  0
    2.9800   -3.4716   -0.4646 C   0  0  0  0  0  0  0  0  0  0  0  0
    1.5978   -4.0897   -0.4008 C   0  0  0  0  0  0  0  0  0  0  0  0
    1.6148   -5.4962    0.2255 C   0  0  0  0  0  0  0  0  0  0  0  0
    0.2340   -6.0356    0.3826 C   0  0  0  0  0  0  0  0  0  0  0  0
   -0.6370   -5.0780    1.0806 N   0  0  0  0  0  0  0  0  0  0  0  0
   -1.4102   -5.4461    2.1504 C   0  0  0  0  0  0  0  0  0  0  0  0
   -1.1297   -6.6175    2.8282 C   0  0  0  0  0  0  0  0  0  0  0  0
   -0.9420   -7.5955    3.4386 C   0  0  0  0  0  0  0  0  0  0  0  0
   -0.5056   -8.7953    4.0631 C   0  0  0  0  0  0  0  0  0  0  0  0
   -0.9833   -8.9625    5.3917 N   0  0  0  0  0  0  0  0  0  0  0  0
   -1.1674   -7.8514    6.2234 C   0  0  0  0  0  0  0  0  0  0  0  0
   -1.0867  -10.2276    5.9974 C   0  0  0  0  0  0  0  0  0  0  0  0
   -0.9554   -9.9556    3.1904 C   0  0  0  0  0  0  0  0  0  0  0  0
    1.0327   -8.8198    4.0960 C   0  0  0  0  0  0  0  0  0  0  0  0
   -2.3339   -4.7163    2.5406 O   0  0  0  0  0  0  0  0  0  0  0  0
   -0.6497   -3.7206    0.5991 C   0  0  0  0  0  0  0  0  0  0  0  0
    0.7373   -3.1793    0.4773 C   0  0  0  0  0  0  0  0  0  0  0  0
    3.8607   -3.9516    0.2746 O   0  0  0  0  0  0  0  0  0  0  0  0
    2.3726   -1.6856   -2.1046 C   0  0  0  0  0  0  0  0  0  0  0  0
    3.8528   -0.2067    0.3078 O   0  0  0  0  0  0  0  0  0  0  0  0
    6.4092   -1.5995    3.2343 C   0  0  0  0  0  0  0  0  0  0  0  0
    5.4539   -2.8095    3.4504 C   0  0  0  0  0  0  0  0  0  0  0  0
    4.3035   -2.3151    4.2612 C   0  0  0  0  0  0  0  0  0  0  0  0
    3.4016   -3.3793    4.6277 N   0  0  0  0  0  0  0  0  0  0  0  0
    4.0292   -4.5518    5.2505 C   0  0  0  0  0  0  0  0  0  0  0  0
    5.3021   -4.9696    4.4898 C   0  0  0  0  0  0  0  0  0  0  0  0
    6.1802   -3.8167    4.2134 O   0  0  0  0  0  0  0  0  0  0  0  0
    7.9116    0.5597    1.5138 O   0  0  0  0  0  0  0  0  0  0  0  0
    7.3471    2.9580    2.9000 C   0  0  0  0  0  0  0  0  0  0  0  0
    7.6134    3.4193    4.3454 C   0  0  0  0  0  0  0  0  0  0  0  0
    6.3349    3.4439    5.2007 C   0  0  0  0  0  0  0  0  0  0  0  0
    4.1733    2.7250    6.9223 O   0  0  0  0  0  0  0  0  0  0  0  0
    0.2007   -1.5781    4.6535 C   0  0  0  0  0  0  0  0  0  0  0  0
   -0.7067   -2.5845    5.0028 C   0  0  0  0  0  0  0  0  0  0  0  0
   -0.2219   -3.9129    5.2578 C   0  0  0  0  0  0  0  0  0  0  0  0
    1.1482   -4.1335    5.1148 C   0  0  0  0  0  0  0  0  0  0  0  0
    2.0364   -3.1115    4.7644 C   0  0  0  0  0  0  0  0  0  0  0  0
    1.5660   -1.8084    4.5225 C   0  0  0  0  0  0  0  0  0  0  0  0
    1.0510   -4.2176   -1.6618 F   0  0  0  0  0  0  0  0  0  0  0  0
  1  2  1  0  0  0  0
  2  3  1  0  0  0  0
  2  5  1  0  0  0  0
  3  4  1  0  0  0  0
  5  6  4  0  0  0  0
  5 10  4  0  0  0  0
  6  7  4  0  0  0  0
  7  8  4  0  0  0  0
  8  9  4  0  0  0  0
  9 10  4  0  0  0  0
 10 11  1  0  0  0  0
 11 12  4  0  0  0  0
 11 15  4  0  0  0  0
 12 13  1  0  0  0  0
 12 68  4  0  0  0  0
 13 14  1  0  0  0  0
 15 16  1  0  0  0  0
 15 67  4  0  0  0  0
 16 17  1  0  0  0  0
 17 18  1  0  0  0  0
 17 19  1  0  0  0  0
 17 20  1  0  0  0  0
 20 21  1  0  0  0  0
 21 22  1  0  0  0  0
 22 23  1  0  0  0  0
 22 66  2  0  0  0  0
 23 24  1  0  0  0  0
 23 65  1  0  0  0  0
 24 25  1  0  0  0  0
 25 26  1  0  0  0  0
 25 63  1  0  0  0  0
 26 27  1  0  0  0  0
 26 62  2  0  0  0  0
 27 28  1  0  0  0  0
 27 55  1  0  0  0  0
 28 29  1  0  0  0  0
 29 30  1  0  0  0  0
 29 54  2  0  0  0  0
 30 31  1  0  0  0  0
 30 34  1  0  0  0  0
 31 32  1  0  0  0  0
 31 33  1  0  0  0  0
 34 35  1  0  0  0  0
 34 53  1  0  0  0  0
 35 36  1  0  0  0  0
 35 52  2  0  0  0  0
 36 37  1  0  0  0  0
 36 51  1  0  0  0  0
 36 73  1  0  0  0  0
 37 38  1  0  0  0  0
 38 39  1  0  0  0  0
 39 40  1  0  0  0  0
 39 50  1  0  0  0  0
 40 41  1  0  0  0  0
 40 49  2  0  0  0  0
 41 42  1  0  0  0  0
 42 43  1  0  0  0  0
 43 44  1  0  0  0  0
 43 47  1  0  0  0  0
 43 48  1  0  0  0  0
 44 45  1  0  0  0  0
 44 46  1  0  0  0  0
 50 51  1  0  0  0  0
 55 56  1  0  0  0  0
 56 57  1  0  0  0  0
 56 61  1  0  0  0  0
 57 58  1  0  0  0  0
 58 59  1  0  0  0  0
 58 71  1  0  0  0  0
 59 60  1  0  0  0  0
 60 61  1  0  0  0  0
 63 64  1  0  0  0  0
 64 65  1  0  0  0  0
 67 68  4  0  0  0  0
 67 72  4  0  0  0  0
 68 69  4  0  0  0  0
 69 70  4  0  0  0  0
 70 71  4  0  0  0  0
 71 72  4  0  0  0  0
M  END
$$$$
