mol_ETKDG3_154
  PyMOL3.1          3D                             0

 73 79  0  0  0  0  0  0  0  0999 V2000
   -3.2323   -0.4127   -3.6745 C   0  0  0  0  0  0  0  0  0  0  0  0
   -3.1235   -1.4222   -2.6110 C   0  0  0  0  0  0  0  0  0  0  0  0
   -4.0504   -1.3311   -1.5575 O   0  0  0  0  0  0  0  0  0  0  0  0
   -3.9692   -0.2070   -0.7156 C   0  0  0  0  0  0  0  0  0  0  0  0
   -3.1858   -2.7927   -3.1317 C   0  0  0  0  0  0  0  0  0  0  0  0
   -4.3755   -3.2814   -3.4344 N   0  0  0  0  0  0  0  0  0  0  0  0
   -4.5050   -4.5147   -3.9645 C   0  0  0  0  0  0  0  0  0  0  0  0
   -3.3912   -5.3209   -4.2188 C   0  0  0  0  0  0  0  0  0  0  0  0
   -2.1200   -4.8089   -3.9165 C   0  0  0  0  0  0  0  0  0  0  0  0
   -2.0280   -3.5379   -3.3421 C   0  0  0  0  0  0  0  0  0  0  0  0
   -0.7252   -3.0189   -2.9814 C   0  0  0  0  0  0  0  0  0  0  0  0
    0.1318   -2.4539   -3.8690 N   0  0  0  0  0  0  0  0  0  0  0  0
   -0.0772   -2.2548   -5.3394 C   0  0  0  0  0  0  0  0  0  0  0  0
    0.6911   -3.1827   -6.1567 C   0  0  0  0  0  0  0  0  0  0  0  0
   -0.2070   -2.9177   -1.6651 C   0  0  0  0  0  0  0  0  0  0  0  0
   -0.8113   -3.3166   -0.3437 C   0  0  0  0  0  0  0  0  0  0  0  0
   -0.5061   -4.8053    0.1162 C   0  0  0  0  0  0  0  0  0  0  0  0
   -1.0023   -5.8465   -0.8548 C   0  0  0  0  0  0  0  0  0  0  0  0
   -1.2798   -5.0648    1.3815 C   0  0  0  0  0  0  0  0  0  0  0  0
    0.9728   -5.0255    0.3473 C   0  0  0  0  0  0  0  0  0  0  0  0
    1.4833   -4.5312    1.6740 O   0  0  0  0  0  0  0  0  0  0  0  0
    2.3961   -5.2534    2.4973 C   0  0  0  0  0  0  0  0  0  0  0  0
    2.8476   -4.6109    3.7955 C   0  0  0  0  0  0  0  0  0  0  0  0
    2.0462   -3.4623    4.0656 N   0  0  0  0  0  0  0  0  0  0  0  0
    2.2842   -2.7732    5.2424 N   0  0  0  0  0  0  0  0  0  0  0  0
    2.5462   -1.4351    5.2309 C   0  0  0  0  0  0  0  0  0  0  0  0
    2.5818   -0.7252    3.9145 C   0  0  0  0  0  0  0  0  0  0  0  0
    1.9917    0.5879    4.0035 N   0  0  0  0  0  0  0  0  0  0  0  0
    0.7610    0.8712    3.5697 C   0  0  0  0  0  0  0  0  0  0  0  0
    0.3761    2.3075    3.5864 C   0  0  0  0  0  0  0  0  0  0  0  0
   -0.5587    2.7229    4.7523 C   0  0  0  0  0  0  0  0  0  0  0  0
   -0.6109    4.1937    4.9522 C   0  0  0  0  0  0  0  0  0  0  0  0
   -0.3645    1.9527    6.0042 C   0  0  0  0  0  0  0  0  0  0  0  0
   -0.2111    2.5939    2.2808 N   0  0  0  0  0  0  0  0  0  0  0  0
    0.6330    2.8831    1.2426 C   0  0  0  0  0  0  0  0  0  0  0  0
    0.2029    3.1282   -0.1789 C   0  0  0  0  0  0  0  0  0  0  0  0
    1.2741    3.8559   -0.9896 C   0  0  0  0  0  0  0  0  0  0  0  0
    0.9063    3.9369   -2.4246 C   0  0  0  0  0  0  0  0  0  0  0  0
    0.4927    2.6269   -2.9469 N   0  0  0  0  0  0  0  0  0  0  0  0
    0.9998    2.0715   -4.0776 C   0  0  0  0  0  0  0  0  0  0  0  0
    2.2598    2.3721   -4.5378 C   0  0  0  0  0  0  0  0  0  0  0  0
    3.2936    2.5661   -5.0235 C   0  0  0  0  0  0  0  0  0  0  0  0
    4.5780    2.8478   -5.4959 C   0  0  0  0  0  0  0  0  0  0  0  0
    4.6848    2.7521   -6.9066 N   0  0  0  0  0  0  0  0  0  0  0  0
    5.8960    2.9867   -7.5582 C   0  0  0  0  0  0  0  0  0  0  0  0
    3.5974    2.3985   -7.7114 C   0  0  0  0  0  0  0  0  0  0  0  0
    4.9535    4.2528   -5.0406 C   0  0  0  0  0  0  0  0  0  0  0  0
    5.5608    1.8783   -4.8613 C   0  0  0  0  0  0  0  0  0  0  0  0
    0.3403    1.2145   -4.6781 O   0  0  0  0  0  0  0  0  0  0  0  0
   -0.4834    1.9040   -2.1972 C   0  0  0  0  0  0  0  0  0  0  0  0
   -0.0497    1.7609   -0.7881 C   0  0  0  0  0  0  0  0  0  0  0  0
    1.8501    2.9113    1.4854 O   0  0  0  0  0  0  0  0  0  0  0  0
   -1.6684    2.4388    2.1077 C   0  0  0  0  0  0  0  0  0  0  0  0
    0.0641    0.0023    3.0795 O   0  0  0  0  0  0  0  0  0  0  0  0
    4.0707   -0.5875    3.4083 C   0  0  0  0  0  0  0  0  0  0  0  0
    4.1939    0.0033    1.9809 C   0  0  0  0  0  0  0  0  0  0  0  0
    3.8006   -1.0690    1.0303 C   0  0  0  0  0  0  0  0  0  0  0  0
    3.9606   -0.6632   -0.3365 N   0  0  0  0  0  0  0  0  0  0  0  0
    5.2670   -0.1020   -0.6787 C   0  0  0  0  0  0  0  0  0  0  0  0
    5.7389    0.8926    0.3863 C   0  0  0  0  0  0  0  0  0  0  0  0
    5.5804    0.3543    1.7478 O   0  0  0  0  0  0  0  0  0  0  0  0
    2.7843   -0.8064    6.2705 O   0  0  0  0  0  0  0  0  0  0  0  0
    2.1689   -3.5515    6.4710 C   0  0  0  0  0  0  0  0  0  0  0  0
    3.0107   -4.8351    6.3304 C   0  0  0  0  0  0  0  0  0  0  0  0
    2.7431   -5.5735    5.0162 C   0  0  0  0  0  0  0  0  0  0  0  0
    2.8533   -6.3765    2.2363 O   0  0  0  0  0  0  0  0  0  0  0  0
    1.0291   -2.2662   -1.8402 C   0  0  0  0  0  0  0  0  0  0  0  0
    1.2044   -2.0119   -3.1986 C   0  0  0  0  0  0  0  0  0  0  0  0
    2.3836   -1.3271   -3.6360 C   0  0  0  0  0  0  0  0  0  0  0  0
    3.2768   -0.8978   -2.6539 C   0  0  0  0  0  0  0  0  0  0  0  0
    3.0662   -1.1381   -1.2974 C   0  0  0  0  0  0  0  0  0  0  0  0
    1.9321   -1.8473   -0.8771 C   0  0  0  0  0  0  0  0  0  0  0  0
   -0.9399    3.8985   -0.2394 F   0  0  0  0  0  0  0  0  0  0  0  0
  1  2  1  0  0  0  0
  2  3  1  0  0  0  0
  2  5  1  0  0  0  0
  3  4  1  0  0  0  0
  5  6  4  0  0  0  0
  5 10  4  0  0  0  0
  6  7  4  0  0  0  0
  7  8  4  0  0  0  0
  8  9  4  0  0  0  0
  9 10  4  0  0  0  0
 10 11  1  0  0  0  0
 11 12  4  0  0  0  0
 11 15  4  0  0  0  0
 12 13  1  0  0  0  0
 12 68  4  0  0  0  0
 13 14  1  0  0  0  0
 15 16  1  0  0  0  0
 15 67  4  0  0  0  0
 16 17  1  0  0  0  0
 17 18  1  0  0  0  0
 17 19  1  0  0  0  0
 17 20  1  0  0  0  0
 20 21  1  0  0  0  0
 21 22  1  0  0  0  0
 22 23  1  0  0  0  0
 22 66  2  0  0  0  0
 23 24  1  0  0  0  0
 23 65  1  0  0  0  0
 24 25  1  0  0  0  0
 25 26  1  0  0  0  0
 25 63  1  0  0  0  0
 26 27  1  0  0  0  0
 26 62  2  0  0  0  0
 27 28  1  0  0  0  0
 27 55  1  0  0  0  0
 28 29  1  0  0  0  0
 29 30  1  0  0  0  0
 29 54  2  0  0  0  0
 30 31  1  0  0  0  0
 30 34  1  0  0  0  0
 31 32  1  0  0  0  0
 31 33  1  0  0  0  0
 34 35  1  0  0  0  0
 34 53  1  0  0  0  0
 35 36  1  0  0  0  0
 35 52  2  0  0  0  0
 36 37  1  0  0  0  0
 36 51  1  0  0  0  0
 36 73  1  0  0  0  0
 37 38  1  0  0  0  0
 38 39  1  0  0  0  0
 39 40  1  0  0  0  0
 39 50  1  0  0  0  0
 40 41  1  0  0  0  0
 40 49  2  0  0  0  0
 41 42  1  0  0  0  0
 42 43  1  0  0  0  0
 43 44  1  0  0  0  0
 43 47  1  0  0  0  0
 43 48  1  0  0  0  0
 44 45  1  0  0  0  0
 44 46  1  0  0  0  0
 50 51  1  0  0  0  0
 55 56  1  0  0  0  0
 56 57  1  0  0  0  0
 56 61  1  0  0  0  0
 57 58  1  0  0  0  0
 58 59  1  0  0  0  0
 58 71  1  0  0  0  0
 59 60  1  0  0  0  0
 60 61  1  0  0  0  0
 63 64  1  0  0  0  0
 64 65  1  0  0  0  0
 67 68  4  0  0  0  0
 67 72  4  0  0  0  0
 68 69  4  0  0  0  0
 69 70  4  0  0  0  0
 70 71  4  0  0  0  0
 71 72  4  0  0  0  0
M  END
$$$$
