mol_ETKDG5_266
  PyMOL3.1          3D                             0

 73 79  0  0  0  0  0  0  0  0999 V2000
   -1.2015    0.4466    7.1882 C   0  0  0  0  0  0  0  0  0  0  0  0
   -1.7799    0.3803    5.8280 C   0  0  0  0  0  0  0  0  0  0  0  0
   -2.3887   -0.8568    5.4983 O   0  0  0  0  0  0  0  0  0  0  0  0
   -1.5422   -1.9524    5.2520 C   0  0  0  0  0  0  0  0  0  0  0  0
   -2.8008    1.4208    5.6047 C   0  0  0  0  0  0  0  0  0  0  0  0
   -3.9934    1.2470    6.1549 N   0  0  0  0  0  0  0  0  0  0  0  0
   -4.9639    2.1774    6.0336 C   0  0  0  0  0  0  0  0  0  0  0  0
   -4.7527    3.3706    5.3291 C   0  0  0  0  0  0  0  0  0  0  0  0
   -3.4921    3.5747    4.7442 C   0  0  0  0  0  0  0  0  0  0  0  0
   -2.5160    2.5756    4.8783 C   0  0  0  0  0  0  0  0  0  0  0  0
   -1.2245    2.7645    4.2516 C   0  0  0  0  0  0  0  0  0  0  0  0
   -0.2394    3.5386    4.7724 N   0  0  0  0  0  0  0  0  0  0  0  0
   -0.2860    4.3290    6.0459 C   0  0  0  0  0  0  0  0  0  0  0  0
   -0.4766    5.7664    5.8155 C   0  0  0  0  0  0  0  0  0  0  0  0
   -0.7656    2.1132    3.0741 C   0  0  0  0  0  0  0  0  0  0  0  0
   -1.4504    1.0867    2.2064 C   0  0  0  0  0  0  0  0  0  0  0  0
   -2.1927    1.6728    0.9294 C   0  0  0  0  0  0  0  0  0  0  0  0
   -3.0493    2.8781    1.2390 C   0  0  0  0  0  0  0  0  0  0  0  0
   -3.1481    0.6212    0.4114 C   0  0  0  0  0  0  0  0  0  0  0  0
   -1.1495    2.0759   -0.1240 C   0  0  0  0  0  0  0  0  0  0  0  0
   -0.4239    0.9003   -0.7629 O   0  0  0  0  0  0  0  0  0  0  0  0
   -0.5453    0.5520   -2.1491 C   0  0  0  0  0  0  0  0  0  0  0  0
    0.3378   -0.5376   -2.7260 C   0  0  0  0  0  0  0  0  0  0  0  0
    0.8335   -1.4200   -1.7101 N   0  0  0  0  0  0  0  0  0  0  0  0
    1.6533   -2.4661   -2.1468 N   0  0  0  0  0  0  0  0  0  0  0  0
    2.9057   -2.6622   -1.6277 C   0  0  0  0  0  0  0  0  0  0  0  0
    3.3933   -1.7620   -0.5312 C   0  0  0  0  0  0  0  0  0  0  0  0
    4.1671   -2.4959    0.4425 N   0  0  0  0  0  0  0  0  0  0  0  0
    3.6566   -2.9461    1.6044 C   0  0  0  0  0  0  0  0  0  0  0  0
    4.6431   -3.5255    2.5597 C   0  0  0  0  0  0  0  0  0  0  0  0
    4.6889   -5.0772    2.6505 C   0  0  0  0  0  0  0  0  0  0  0  0
    5.9659   -5.5776    3.2440 C   0  0  0  0  0  0  0  0  0  0  0  0
    4.2697   -5.7967    1.4213 C   0  0  0  0  0  0  0  0  0  0  0  0
    4.3826   -2.9247    3.8575 N   0  0  0  0  0  0  0  0  0  0  0  0
    4.8377   -1.6525    4.0821 C   0  0  0  0  0  0  0  0  0  0  0  0
    4.6390   -0.8743    5.3472 C   0  0  0  0  0  0  0  0  0  0  0  0
    3.1638   -0.7935    5.6626 C   0  0  0  0  0  0  0  0  0  0  0  0
    2.8980   -0.0797    6.8977 C   0  0  0  0  0  0  0  0  0  0  0  0
    3.5666    1.2217    6.9089 N   0  0  0  0  0  0  0  0  0  0  0  0
    2.9465    2.3083    7.4135 C   0  0  0  0  0  0  0  0  0  0  0  0
    3.6947    3.4322    7.7028 C   0  0  0  0  0  0  0  0  0  0  0  0
    4.2443    4.3771    8.0776 C   0  0  0  0  0  0  0  0  0  0  0  0
    5.0349    5.4605    8.4648 C   0  0  0  0  0  0  0  0  0  0  0  0
    4.6323    5.9080    9.7606 N   0  0  0  0  0  0  0  0  0  0  0  0
    5.5347    6.0854   10.8183 C   0  0  0  0  0  0  0  0  0  0  0  0
    3.2743    6.2152   10.0207 C   0  0  0  0  0  0  0  0  0  0  0  0
    4.9204    6.6025    7.4502 C   0  0  0  0  0  0  0  0  0  0  0  0
    6.4967    5.0285    8.4685 C   0  0  0  0  0  0  0  0  0  0  0  0
    1.7331    2.3059    7.6349 O   0  0  0  0  0  0  0  0  0  0  0  0
    4.9055    1.3071    6.4124 C   0  0  0  0  0  0  0  0  0  0  0  0
    5.1500    0.5662    5.2158 C   0  0  0  0  0  0  0  0  0  0  0  0
    5.4713   -1.1085    3.1559 O   0  0  0  0  0  0  0  0  0  0  0  0
    3.5619   -3.6667    4.8351 C   0  0  0  0  0  0  0  0  0  0  0  0
    2.4803   -2.7595    1.8863 O   0  0  0  0  0  0  0  0  0  0  0  0
    4.2647   -0.5749   -1.1187 C   0  0  0  0  0  0  0  0  0  0  0  0
    4.6738    0.5089   -0.0691 C   0  0  0  0  0  0  0  0  0  0  0  0
    3.4598    1.3211    0.2206 C   0  0  0  0  0  0  0  0  0  0  0  0
    3.7387    2.4230    1.1182 N   0  0  0  0  0  0  0  0  0  0  0  0
    4.8567    3.2842    0.7329 C   0  0  0  0  0  0  0  0  0  0  0  0
    6.0679    2.4502    0.2780 C   0  0  0  0  0  0  0  0  0  0  0  0
    5.6926    1.3728   -0.6599 O   0  0  0  0  0  0  0  0  0  0  0  0
    3.6512   -3.5583   -2.0549 O   0  0  0  0  0  0  0  0  0  0  0  0
    1.0593   -3.3690   -3.1332 C   0  0  0  0  0  0  0  0  0  0  0  0
    0.4643   -2.5419   -4.2859 C   0  0  0  0  0  0  0  0  0  0  0  0
   -0.4129   -1.3961   -3.7882 C   0  0  0  0  0  0  0  0  0  0  0  0
   -1.3488    1.0978   -2.9386 O   0  0  0  0  0  0  0  0  0  0  0  0
    0.5552    2.5938    2.9153 C   0  0  0  0  0  0  0  0  0  0  0  0
    0.8370    3.4556    3.9725 C   0  0  0  0  0  0  0  0  0  0  0  0
    2.1465    4.0408    4.0759 C   0  0  0  0  0  0  0  0  0  0  0  0
    3.0874    3.6899    3.0989 C   0  0  0  0  0  0  0  0  0  0  0  0
    2.7763    2.8072    2.0532 C   0  0  0  0  0  0  0  0  0  0  0  0
    1.4898    2.2561    1.9505 C   0  0  0  0  0  0  0  0  0  0  0  0
    5.3494   -1.4838    6.3708 F   0  0  0  0  0  0  0  0  0  0  0  0
  1  2  1  0  0  0  0
  2  3  1  0  0  0  0
  2  5  1  0  0  0  0
  3  4  1  0  0  0  0
  5  6  4  0  0  0  0
  5 10  4  0  0  0  0
  6  7  4  0  0  0  0
  7  8  4  0  0  0  0
  8  9  4  0  0  0  0
  9 10  4  0  0  0  0
 10 11  1  0  0  0  0
 11 12  4  0  0  0  0
 11 15  4  0  0  0  0
 12 13  1  0  0  0  0
 12 68  4  0  0  0  0
 13 14  1  0  0  0  0
 15 16  1  0  0  0  0
 15 67  4  0  0  0  0
 16 17  1  0  0  0  0
 17 18  1  0  0  0  0
 17 19  1  0  0  0  0
 17 20  1  0  0  0  0
 20 21  1  0  0  0  0
 21 22  1  0  0  0  0
 22 23  1  0  0  0  0
 22 66  2  0  0  0  0
 23 24  1  0  0  0  0
 23 65  1  0  0  0  0
 24 25  1  0  0  0  0
 25 26  1  0  0  0  0
 25 63  1  0  0  0  0
 26 27  1  0  0  0  0
 26 62  2  0  0  0  0
 27 28  1  0  0  0  0
 27 55  1  0  0  0  0
 28 29  1  0  0  0  0
 29 30  1  0  0  0  0
 29 54  2  0  0  0  0
 30 31  1  0  0  0  0
 30 34  1  0  0  0  0
 31 32  1  0  0  0  0
 31 33  1  0  0  0  0
 34 35  1  0  0  0  0
 34 53  1  0  0  0  0
 35 36  1  0  0  0  0
 35 52  2  0  0  0  0
 36 37  1  0  0  0  0
 36 51  1  0  0  0  0
 36 73  1  0  0  0  0
 37 38  1  0  0  0  0
 38 39  1  0  0  0  0
 39 40  1  0  0  0  0
 39 50  1  0  0  0  0
 40 41  1  0  0  0  0
 40 49  2  0  0  0  0
 41 42  1  0  0  0  0
 42 43  1  0  0  0  0
 43 44  1  0  0  0  0
 43 47  1  0  0  0  0
 43 48  1  0  0  0  0
 44 45  1  0  0  0  0
 44 46  1  0  0  0  0
 50 51  1  0  0  0  0
 55 56  1  0  0  0  0
 56 57  1  0  0  0  0
 56 61  1  0  0  0  0
 57 58  1  0  0  0  0
 58 59  1  0  0  0  0
 58 71  1  0  0  0  0
 59 60  1  0  0  0  0
 60 61  1  0  0  0  0
 63 64  1  0  0  0  0
 64 65  1  0  0  0  0
 67 68  4  0  0  0  0
 67 72  4  0  0  0  0
 68 69  4  0  0  0  0
 69 70  4  0  0  0  0
 70 71  4  0  0  0  0
 71 72  4  0  0  0  0
M  END
$$$$
