mol_ETKDG4_203
  PyMOL3.1          3D                             0

 73 79  0  0  0  0  0  0  0  0999 V2000
    0.4092    7.9544   -1.3481 C   0  0  0  0  0  0  0  0  0  0  0  0
    0.2769    7.5484    0.0644 C   0  0  0  0  0  0  0  0  0  0  0  0
    1.4792    7.4517    0.7933 O   0  0  0  0  0  0  0  0  0  0  0  0
    2.3032    6.3436    0.5347 C   0  0  0  0  0  0  0  0  0  0  0  0
   -0.6184    8.4292    0.8268 C   0  0  0  0  0  0  0  0  0  0  0  0
   -0.1817    9.6352    1.1413 N   0  0  0  0  0  0  0  0  0  0  0  0
   -0.9649   10.5166    1.7979 C   0  0  0  0  0  0  0  0  0  0  0  0
   -2.2705   10.1959    2.1694 C   0  0  0  0  0  0  0  0  0  0  0  0
   -2.7491    8.9256    1.8414 C   0  0  0  0  0  0  0  0  0  0  0  0
   -1.8974    8.0311    1.1791 C   0  0  0  0  0  0  0  0  0  0  0  0
   -2.3953    6.7078    0.8901 C   0  0  0  0  0  0  0  0  0  0  0  0
   -3.1847    6.4329   -0.1753 N   0  0  0  0  0  0  0  0  0  0  0  0
   -3.6315    7.3749   -1.2550 C   0  0  0  0  0  0  0  0  0  0  0  0
   -5.0298    7.7764   -1.1377 C   0  0  0  0  0  0  0  0  0  0  0  0
   -2.0904    5.5193    1.6079 C   0  0  0  0  0  0  0  0  0  0  0  0
   -1.1429    5.2451    2.7451 C   0  0  0  0  0  0  0  0  0  0  0  0
   -1.7247    5.4304    4.2028 C   0  0  0  0  0  0  0  0  0  0  0  0
   -0.6141    5.1088    5.1858 C   0  0  0  0  0  0  0  0  0  0  0  0
   -2.0818    6.8498    4.4701 C   0  0  0  0  0  0  0  0  0  0  0  0
   -2.9290    4.5451    4.4570 C   0  0  0  0  0  0  0  0  0  0  0  0
   -2.6644    3.1418    4.9546 O   0  0  0  0  0  0  0  0  0  0  0  0
   -3.3949    2.5099    6.0119 C   0  0  0  0  0  0  0  0  0  0  0  0
   -3.0713    1.0694    6.3844 C   0  0  0  0  0  0  0  0  0  0  0  0
   -1.8165    0.6636    5.8326 N   0  0  0  0  0  0  0  0  0  0  0  0
   -1.3687   -0.6271    6.1032 N   0  0  0  0  0  0  0  0  0  0  0  0
   -1.0280   -1.4907    5.0932 C   0  0  0  0  0  0  0  0  0  0  0  0
   -1.2135   -1.0211    3.6847 C   0  0  0  0  0  0  0  0  0  0  0  0
   -0.2165   -1.5171    2.7636 N   0  0  0  0  0  0  0  0  0  0  0  0
    0.8369   -0.7890    2.3558 C   0  0  0  0  0  0  0  0  0  0  0  0
    1.6167   -1.3531    1.2206 C   0  0  0  0  0  0  0  0  0  0  0  0
    2.9750   -2.0016    1.6413 C   0  0  0  0  0  0  0  0  0  0  0  0
    3.6264   -2.7435    0.5257 C   0  0  0  0  0  0  0  0  0  0  0  0
    2.8665   -2.8194    2.8978 C   0  0  0  0  0  0  0  0  0  0  0  0
    1.7687   -0.2572    0.2535 N   0  0  0  0  0  0  0  0  0  0  0  0
    0.7379   -0.0038   -0.6310 C   0  0  0  0  0  0  0  0  0  0  0  0
    0.7214    1.1262   -1.6265 C   0  0  0  0  0  0  0  0  0  0  0  0
    0.2907    2.3681   -0.8835 C   0  0  0  0  0  0  0  0  0  0  0  0
    0.3147    3.5492   -1.7400 C   0  0  0  0  0  0  0  0  0  0  0  0
   -0.3919    3.3353   -3.0047 N   0  0  0  0  0  0  0  0  0  0  0  0
   -1.1597    4.3300   -3.5324 C   0  0  0  0  0  0  0  0  0  0  0  0
   -1.6724    4.1958   -4.8050 C   0  0  0  0  0  0  0  0  0  0  0  0
   -2.0486    4.2647   -5.8959 C   0  0  0  0  0  0  0  0  0  0  0  0
   -2.4048    4.1341   -7.2500 C   0  0  0  0  0  0  0  0  0  0  0  0
   -1.7233    5.1130   -8.0799 N   0  0  0  0  0  0  0  0  0  0  0  0
   -0.4441    5.5605   -7.6966 C   0  0  0  0  0  0  0  0  0  0  0  0
   -2.0627    5.2869   -9.4299 C   0  0  0  0  0  0  0  0  0  0  0  0
   -3.8989    4.2816   -7.3525 C   0  0  0  0  0  0  0  0  0  0  0  0
   -2.0288    2.7288   -7.7390 C   0  0  0  0  0  0  0  0  0  0  0  0
   -1.3830    5.3716   -2.9058 O   0  0  0  0  0  0  0  0  0  0  0  0
   -0.2137    2.0809   -3.6734 C   0  0  0  0  0  0  0  0  0  0  0  0
   -0.2289    0.9144   -2.8033 C   0  0  0  0  0  0  0  0  0  0  0  0
   -0.2569   -0.7560   -0.5874 O   0  0  0  0  0  0  0  0  0  0  0  0
    2.9490    0.6168    0.3511 C   0  0  0  0  0  0  0  0  0  0  0  0
    1.0492    0.3108    2.8269 O   0  0  0  0  0  0  0  0  0  0  0  0
   -2.6316   -1.4617    3.1715 C   0  0  0  0  0  0  0  0  0  0  0  0
   -2.9886   -0.9674    1.7546 C   0  0  0  0  0  0  0  0  0  0  0  0
   -3.3386    0.4788    1.8566 C   0  0  0  0  0  0  0  0  0  0  0  0
   -3.8024    1.0030    0.5966 N   0  0  0  0  0  0  0  0  0  0  0  0
   -4.8745    0.2134   -0.0372 C   0  0  0  0  0  0  0  0  0  0  0  0
   -4.5415   -1.2822   -0.0275 C   0  0  0  0  0  0  0  0  0  0  0  0
   -4.1375   -1.7235    1.3084 O   0  0  0  0  0  0  0  0  0  0  0  0
   -0.6429   -2.6471    5.3105 O   0  0  0  0  0  0  0  0  0  0  0  0
   -1.2265   -0.9534    7.5206 C   0  0  0  0  0  0  0  0  0  0  0  0
   -2.5291   -0.5713    8.2582 C   0  0  0  0  0  0  0  0  0  0  0  0
   -3.0075    0.8418    7.9261 C   0  0  0  0  0  0  0  0  0  0  0  0
   -4.2990    3.0698    6.6635 O   0  0  0  0  0  0  0  0  0  0  0  0
   -2.8264    4.5312    0.9355 C   0  0  0  0  0  0  0  0  0  0  0  0
   -3.4664    5.1230   -0.1502 C   0  0  0  0  0  0  0  0  0  0  0  0
   -4.2415    4.3094   -1.0358 C   0  0  0  0  0  0  0  0  0  0  0  0
   -4.3167    2.9477   -0.7520 C   0  0  0  0  0  0  0  0  0  0  0  0
   -3.6829    2.3741    0.3477 C   0  0  0  0  0  0  0  0  0  0  0  0
   -2.9091    3.1714    1.2035 C   0  0  0  0  0  0  0  0  0  0  0  0
    1.9523    1.2737   -2.2051 F   0  0  0  0  0  0  0  0  0  0  0  0
  1  2  1  0  0  0  0
  2  3  1  0  0  0  0
  2  5  1  0  0  0  0
  3  4  1  0  0  0  0
  5  6  4  0  0  0  0
  5 10  4  0  0  0  0
  6  7  4  0  0  0  0
  7  8  4  0  0  0  0
  8  9  4  0  0  0  0
  9 10  4  0  0  0  0
 10 11  1  0  0  0  0
 11 12  4  0  0  0  0
 11 15  4  0  0  0  0
 12 13  1  0  0  0  0
 12 68  4  0  0  0  0
 13 14  1  0  0  0  0
 15 16  1  0  0  0  0
 15 67  4  0  0  0  0
 16 17  1  0  0  0  0
 17 18  1  0  0  0  0
 17 19  1  0  0  0  0
 17 20  1  0  0  0  0
 20 21  1  0  0  0  0
 21 22  1  0  0  0  0
 22 23  1  0  0  0  0
 22 66  2  0  0  0  0
 23 24  1  0  0  0  0
 23 65  1  0  0  0  0
 24 25  1  0  0  0  0
 25 26  1  0  0  0  0
 25 63  1  0  0  0  0
 26 27  1  0  0  0  0
 26 62  2  0  0  0  0
 27 28  1  0  0  0  0
 27 55  1  0  0  0  0
 28 29  1  0  0  0  0
 29 30  1  0  0  0  0
 29 54  2  0  0  0  0
 30 31  1  0  0  0  0
 30 34  1  0  0  0  0
 31 32  1  0  0  0  0
 31 33  1  0  0  0  0
 34 35  1  0  0  0  0
 34 53  1  0  0  0  0
 35 36  1  0  0  0  0
 35 52  2  0  0  0  0
 36 37  1  0  0  0  0
 36 51  1  0  0  0  0
 36 73  1  0  0  0  0
 37 38  1  0  0  0  0
 38 39  1  0  0  0  0
 39 40  1  0  0  0  0
 39 50  1  0  0  0  0
 40 41  1  0  0  0  0
 40 49  2  0  0  0  0
 41 42  1  0  0  0  0
 42 43  1  0  0  0  0
 43 44  1  0  0  0  0
 43 47  1  0  0  0  0
 43 48  1  0  0  0  0
 44 45  1  0  0  0  0
 44 46  1  0  0  0  0
 50 51  1  0  0  0  0
 55 56  1  0  0  0  0
 56 57  1  0  0  0  0
 56 61  1  0  0  0  0
 57 58  1  0  0  0  0
 58 59  1  0  0  0  0
 58 71  1  0  0  0  0
 59 60  1  0  0  0  0
 60 61  1  0  0  0  0
 63 64  1  0  0  0  0
 64 65  1  0  0  0  0
 67 68  4  0  0  0  0
 67 72  4  0  0  0  0
 68 69  4  0  0  0  0
 69 70  4  0  0  0  0
 70 71  4  0  0  0  0
 71 72  4  0  0  0  0
M  END
$$$$
