mol_ETKDG4_245
  PyMOL3.1          3D                             0

 73 79  0  0  0  0  0  0  0  0999 V2000
    3.3447    3.2484   -2.8457 C   0  0  0  0  0  0  0  0  0  0  0  0
    3.1135    1.7895   -2.8702 C   0  0  0  0  0  0  0  0  0  0  0  0
    2.4287    1.3100   -3.9916 O   0  0  0  0  0  0  0  0  0  0  0  0
    1.0656    1.6129   -4.0767 C   0  0  0  0  0  0  0  0  0  0  0  0
    4.3571    1.0102   -2.7539 C   0  0  0  0  0  0  0  0  0  0  0  0
    5.1631    0.9937   -3.7935 N   0  0  0  0  0  0  0  0  0  0  0  0
    6.3464    0.3572   -3.7492 C   0  0  0  0  0  0  0  0  0  0  0  0
    6.7771   -0.3047   -2.5982 C   0  0  0  0  0  0  0  0  0  0  0  0
    5.9395   -0.2919   -1.4803 C   0  0  0  0  0  0  0  0  0  0  0  0
    4.7032    0.3441   -1.5770 C   0  0  0  0  0  0  0  0  0  0  0  0
    3.7948    0.3011   -0.4523 C   0  0  0  0  0  0  0  0  0  0  0  0
    3.6984    1.2977    0.4659 N   0  0  0  0  0  0  0  0  0  0  0  0
    4.4887    2.5736    0.5289 C   0  0  0  0  0  0  0  0  0  0  0  0
    5.5106    2.5763    1.5733 C   0  0  0  0  0  0  0  0  0  0  0  0
    2.8145   -0.6980   -0.2113 C   0  0  0  0  0  0  0  0  0  0  0  0
    2.4434   -1.9315   -1.0031 C   0  0  0  0  0  0  0  0  0  0  0  0
    3.1376   -3.2924   -0.5727 C   0  0  0  0  0  0  0  0  0  0  0  0
    2.8095   -4.3364   -1.6310 C   0  0  0  0  0  0  0  0  0  0  0  0
    4.6109   -3.2123   -0.5642 C   0  0  0  0  0  0  0  0  0  0  0  0
    2.6655   -3.7517    0.7931 C   0  0  0  0  0  0  0  0  0  0  0  0
    1.3141   -4.3951    0.8321 O   0  0  0  0  0  0  0  0  0  0  0  0
    1.0394   -5.6524    1.4405 C   0  0  0  0  0  0  0  0  0  0  0  0
   -0.3849   -6.1414    1.5012 C   0  0  0  0  0  0  0  0  0  0  0  0
   -1.2285   -5.4027    0.6193 N   0  0  0  0  0  0  0  0  0  0  0  0
   -2.5679   -5.7897    0.5607 N   0  0  0  0  0  0  0  0  0  0  0  0
   -3.5774   -4.8958    0.7481 C   0  0  0  0  0  0  0  0  0  0  0  0
   -3.2306   -3.4593    0.9829 C   0  0  0  0  0  0  0  0  0  0  0  0
   -4.1363   -2.5945    0.2516 N   0  0  0  0  0  0  0  0  0  0  0  0
   -3.7961   -1.9543   -0.8780 C   0  0  0  0  0  0  0  0  0  0  0  0
   -4.8347   -1.0365   -1.4526 C   0  0  0  0  0  0  0  0  0  0  0  0
   -5.5875   -1.5666   -2.6851 C   0  0  0  0  0  0  0  0  0  0  0  0
   -4.9323   -2.5503   -3.5369 C   0  0  0  0  0  0  0  0  0  0  0  0
   -7.0556   -1.7493   -2.4652 C   0  0  0  0  0  0  0  0  0  0  0  0
   -4.1859    0.2359   -1.7455 N   0  0  0  0  0  0  0  0  0  0  0  0
   -4.0404    1.1389   -0.7356 C   0  0  0  0  0  0  0  0  0  0  0  0
   -3.3403    2.4595   -0.8809 C   0  0  0  0  0  0  0  0  0  0  0  0
   -1.8650    2.1625   -0.8767 C   0  0  0  0  0  0  0  0  0  0  0  0
   -1.0788    3.4160   -1.0666 C   0  0  0  0  0  0  0  0  0  0  0  0
   -1.4144    4.2978    0.0436 N   0  0  0  0  0  0  0  0  0  0  0  0
   -0.4111    4.6849    0.8861 C   0  0  0  0  0  0  0  0  0  0  0  0
   -0.5461    4.8463    2.2616 C   0  0  0  0  0  0  0  0  0  0  0  0
   -0.4506    4.9986    3.4131 C   0  0  0  0  0  0  0  0  0  0  0  0
   -0.4367    5.1323    4.8185 C   0  0  0  0  0  0  0  0  0  0  0  0
    0.8702    5.5233    5.2541 N   0  0  0  0  0  0  0  0  0  0  0  0
    1.8725    4.5526    5.4010 C   0  0  0  0  0  0  0  0  0  0  0  0
    1.2853    6.8657    5.1133 C   0  0  0  0  0  0  0  0  0  0  0  0
   -0.8450    3.8266    5.4637 C   0  0  0  0  0  0  0  0  0  0  0  0
   -1.4635    6.1541    5.2413 C   0  0  0  0  0  0  0  0  0  0  0  0
    0.7158    4.8287    0.4258 O   0  0  0  0  0  0  0  0  0  0  0  0
   -2.8078    4.6570    0.1755 C   0  0  0  0  0  0  0  0  0  0  0  0
   -3.6639    3.4402    0.2576 C   0  0  0  0  0  0  0  0  0  0  0  0
   -4.4954    0.8322    0.3805 O   0  0  0  0  0  0  0  0  0  0  0  0
   -3.6237    0.4705   -3.0848 C   0  0  0  0  0  0  0  0  0  0  0  0
   -2.6600   -2.0257   -1.3003 O   0  0  0  0  0  0  0  0  0  0  0  0
   -3.2681   -3.1620    2.5305 C   0  0  0  0  0  0  0  0  0  0  0  0
   -2.7311   -1.7710    2.9629 C   0  0  0  0  0  0  0  0  0  0  0  0
   -1.2529   -1.7695    2.7666 C   0  0  0  0  0  0  0  0  0  0  0  0
   -0.6290   -0.5726    3.2827 N   0  0  0  0  0  0  0  0  0  0  0  0
   -0.9794   -0.2115    4.6473 C   0  0  0  0  0  0  0  0  0  0  0  0
   -2.4838   -0.3503    4.8884 C   0  0  0  0  0  0  0  0  0  0  0  0
   -3.0137   -1.6198    4.3786 O   0  0  0  0  0  0  0  0  0  0  0  0
   -4.7657   -5.2431    0.7681 O   0  0  0  0  0  0  0  0  0  0  0  0
   -2.8251   -7.1820    0.2176 C   0  0  0  0  0  0  0  0  0  0  0  0
   -1.9662   -8.0895    1.1026 C   0  0  0  0  0  0  0  0  0  0  0  0
   -0.5109   -7.6476    1.1524 C   0  0  0  0  0  0  0  0  0  0  0  0
    1.9088   -6.4055    1.9402 O   0  0  0  0  0  0  0  0  0  0  0  0
    2.1511   -0.2302    0.9327 C   0  0  0  0  0  0  0  0  0  0  0  0
    2.7159    0.9868    1.3084 C   0  0  0  0  0  0  0  0  0  0  0  0
    2.1646    1.7072    2.4178 C   0  0  0  0  0  0  0  0  0  0  0  0
    1.0652    1.1528    3.0551 C   0  0  0  0  0  0  0  0  0  0  0  0
    0.5063   -0.0616    2.6538 C   0  0  0  0  0  0  0  0  0  0  0  0
    1.0626   -0.7786    1.5854 C   0  0  0  0  0  0  0  0  0  0  0  0
   -3.7464    3.0963   -2.0388 F   0  0  0  0  0  0  0  0  0  0  0  0
  1  2  1  0  0  0  0
  2  3  1  0  0  0  0
  2  5  1  0  0  0  0
  3  4  1  0  0  0  0
  5  6  4  0  0  0  0
  5 10  4  0  0  0  0
  6  7  4  0  0  0  0
  7  8  4  0  0  0  0
  8  9  4  0  0  0  0
  9 10  4  0  0  0  0
 10 11  1  0  0  0  0
 11 12  4  0  0  0  0
 11 15  4  0  0  0  0
 12 13  1  0  0  0  0
 12 68  4  0  0  0  0
 13 14  1  0  0  0  0
 15 16  1  0  0  0  0
 15 67  4  0  0  0  0
 16 17  1  0  0  0  0
 17 18  1  0  0  0  0
 17 19  1  0  0  0  0
 17 20  1  0  0  0  0
 20 21  1  0  0  0  0
 21 22  1  0  0  0  0
 22 23  1  0  0  0  0
 22 66  2  0  0  0  0
 23 24  1  0  0  0  0
 23 65  1  0  0  0  0
 24 25  1  0  0  0  0
 25 26  1  0  0  0  0
 25 63  1  0  0  0  0
 26 27  1  0  0  0  0
 26 62  2  0  0  0  0
 27 28  1  0  0  0  0
 27 55  1  0  0  0  0
 28 29  1  0  0  0  0
 29 30  1  0  0  0  0
 29 54  2  0  0  0  0
 30 31  1  0  0  0  0
 30 34  1  0  0  0  0
 31 32  1  0  0  0  0
 31 33  1  0  0  0  0
 34 35  1  0  0  0  0
 34 53  1  0  0  0  0
 35 36  1  0  0  0  0
 35 52  2  0  0  0  0
 36 37  1  0  0  0  0
 36 51  1  0  0  0  0
 36 73  1  0  0  0  0
 37 38  1  0  0  0  0
 38 39  1  0  0  0  0
 39 40  1  0  0  0  0
 39 50  1  0  0  0  0
 40 41  1  0  0  0  0
 40 49  2  0  0  0  0
 41 42  1  0  0  0  0
 42 43  1  0  0  0  0
 43 44  1  0  0  0  0
 43 47  1  0  0  0  0
 43 48  1  0  0  0  0
 44 45  1  0  0  0  0
 44 46  1  0  0  0  0
 50 51  1  0  0  0  0
 55 56  1  0  0  0  0
 56 57  1  0  0  0  0
 56 61  1  0  0  0  0
 57 58  1  0  0  0  0
 58 59  1  0  0  0  0
 58 71  1  0  0  0  0
 59 60  1  0  0  0  0
 60 61  1  0  0  0  0
 63 64  1  0  0  0  0
 64 65  1  0  0  0  0
 67 68  4  0  0  0  0
 67 72  4  0  0  0  0
 68 69  4  0  0  0  0
 69 70  4  0  0  0  0
 70 71  4  0  0  0  0
 71 72  4  0  0  0  0
M  END
$$$$
