mol_ETKDG5_267
  PyMOL3.1          3D                             0

 73 79  0  0  0  0  0  0  0  0999 V2000
   -0.9128   -1.9064    7.1372 C   0  0  0  0  0  0  0  0  0  0  0  0
   -1.9453   -2.2954    6.1621 C   0  0  0  0  0  0  0  0  0  0  0  0
   -3.2283   -1.7235    6.3670 O   0  0  0  0  0  0  0  0  0  0  0  0
   -3.3872   -0.3724    6.0141 C   0  0  0  0  0  0  0  0  0  0  0  0
   -2.1245   -3.7597    6.0706 C   0  0  0  0  0  0  0  0  0  0  0  0
   -2.9017   -4.3456    6.9643 N   0  0  0  0  0  0  0  0  0  0  0  0
   -3.0792   -5.6834    6.9732 C   0  0  0  0  0  0  0  0  0  0  0  0
   -2.4381   -6.5149    6.0479 C   0  0  0  0  0  0  0  0  0  0  0  0
   -1.5967   -5.9181    5.1020 C   0  0  0  0  0  0  0  0  0  0  0  0
   -1.4589   -4.5222    5.1093 C   0  0  0  0  0  0  0  0  0  0  0  0
   -0.6265   -3.9117    4.0989 C   0  0  0  0  0  0  0  0  0  0  0  0
    0.7328   -3.9246    4.1337 N   0  0  0  0  0  0  0  0  0  0  0  0
    1.6238   -4.5133    5.1872 C   0  0  0  0  0  0  0  0  0  0  0  0
    2.2460   -5.7776    4.7853 C   0  0  0  0  0  0  0  0  0  0  0  0
   -1.0917   -3.1577    2.9888 C   0  0  0  0  0  0  0  0  0  0  0  0
   -2.4819   -2.7392    2.5842 C   0  0  0  0  0  0  0  0  0  0  0  0
   -3.3269   -3.7762    1.7248 C   0  0  0  0  0  0  0  0  0  0  0  0
   -3.6718   -5.0394    2.4853 C   0  0  0  0  0  0  0  0  0  0  0  0
   -4.6571   -3.1342    1.4377 C   0  0  0  0  0  0  0  0  0  0  0  0
   -2.6358   -4.1472    0.4245 C   0  0  0  0  0  0  0  0  0  0  0  0
   -2.8875   -3.2018   -0.7243 O   0  0  0  0  0  0  0  0  0  0  0  0
   -3.1598   -3.6090   -2.0682 C   0  0  0  0  0  0  0  0  0  0  0  0
   -3.3482   -2.5409   -3.1361 C   0  0  0  0  0  0  0  0  0  0  0  0
   -3.5214   -1.2538   -2.5464 N   0  0  0  0  0  0  0  0  0  0  0  0
   -3.7411   -0.1584   -3.3793 N   0  0  0  0  0  0  0  0  0  0  0  0
   -2.9938    0.9798   -3.2532 C   0  0  0  0  0  0  0  0  0  0  0  0
   -1.9040    1.0246   -2.2245 C   0  0  0  0  0  0  0  0  0  0  0  0
   -1.8511    2.3110   -1.5527 N   0  0  0  0  0  0  0  0  0  0  0  0
   -2.2461    2.5020   -0.2777 C   0  0  0  0  0  0  0  0  0  0  0  0
   -1.9640    3.8456    0.3119 C   0  0  0  0  0  0  0  0  0  0  0  0
   -3.1024    4.8700    0.2815 C   0  0  0  0  0  0  0  0  0  0  0  0
   -4.4360    4.4417   -0.1255 C   0  0  0  0  0  0  0  0  0  0  0  0
   -2.6820    6.2476   -0.1239 C   0  0  0  0  0  0  0  0  0  0  0  0
   -1.4530    3.6234    1.6714 N   0  0  0  0  0  0  0  0  0  0  0  0
   -0.1291    3.2664    1.8203 C   0  0  0  0  0  0  0  0  0  0  0  0
    0.5419    2.9170    3.1293 C   0  0  0  0  0  0  0  0  0  0  0  0
    2.0761    2.9200    3.0198 C   0  0  0  0  0  0  0  0  0  0  0  0
    2.7231    2.4186    4.2724 C   0  0  0  0  0  0  0  0  0  0  0  0
    2.1302    1.1352    4.6978 N   0  0  0  0  0  0  0  0  0  0  0  0
    2.8493   -0.0004    4.9907 C   0  0  0  0  0  0  0  0  0  0  0  0
    4.1562   -0.2031    4.5819 C   0  0  0  0  0  0  0  0  0  0  0  0
    5.2454   -0.5250    4.3166 C   0  0  0  0  0  0  0  0  0  0  0  0
    6.5592   -0.7817    3.8808 C   0  0  0  0  0  0  0  0  0  0  0  0
    7.0235   -2.0609    4.3105 N   0  0  0  0  0  0  0  0  0  0  0  0
    8.3447   -2.2885    4.7127 C   0  0  0  0  0  0  0  0  0  0  0  0
    6.2187   -3.2099    4.1195 C   0  0  0  0  0  0  0  0  0  0  0  0
    7.4439    0.3344    4.4044 C   0  0  0  0  0  0  0  0  0  0  0  0
    6.6336   -0.7301    2.3546 C   0  0  0  0  0  0  0  0  0  0  0  0
    2.2945   -0.9293    5.6046 O   0  0  0  0  0  0  0  0  0  0  0  0
    0.7049    1.0861    4.7849 C   0  0  0  0  0  0  0  0  0  0  0  0
    0.0862    1.5115    3.4970 C   0  0  0  0  0  0  0  0  0  0  0  0
    0.5598    3.1951    0.7821 O   0  0  0  0  0  0  0  0  0  0  0  0
   -2.3909    3.6769    2.8085 C   0  0  0  0  0  0  0  0  0  0  0  0
   -2.6786    1.5682    0.3811 O   0  0  0  0  0  0  0  0  0  0  0  0
   -0.5044    0.7312   -2.9041 C   0  0  0  0  0  0  0  0  0  0  0  0
    0.6927    0.6649   -1.9223 C   0  0  0  0  0  0  0  0  0  0  0  0
    0.6162   -0.6351   -1.2155 C   0  0  0  0  0  0  0  0  0  0  0  0
    1.7336   -0.8527   -0.3393 N   0  0  0  0  0  0  0  0  0  0  0  0
    3.0562   -0.6558   -0.9535 C   0  0  0  0  0  0  0  0  0  0  0  0
    3.0929    0.6360   -1.7842 C   0  0  0  0  0  0  0  0  0  0  0  0
    1.9304    0.7394   -2.6790 O   0  0  0  0  0  0  0  0  0  0  0  0
   -3.1669    1.9628   -3.9949 O   0  0  0  0  0  0  0  0  0  0  0  0
   -4.8476   -0.2817   -4.3274 C   0  0  0  0  0  0  0  0  0  0  0  0
   -4.7724   -1.6431   -5.0502 C   0  0  0  0  0  0  0  0  0  0  0  0
   -4.5386   -2.8202   -4.0971 C   0  0  0  0  0  0  0  0  0  0  0  0
   -3.2382   -4.8022   -2.4305 O   0  0  0  0  0  0  0  0  0  0  0  0
    0.0929   -2.7600    2.3434 C   0  0  0  0  0  0  0  0  0  0  0  0
    1.1767   -3.2496    3.0694 C   0  0  0  0  0  0  0  0  0  0  0  0
    2.5048   -2.9590    2.6245 C   0  0  0  0  0  0  0  0  0  0  0  0
    2.6453   -2.1530    1.4907 C   0  0  0  0  0  0  0  0  0  0  0  0
    1.5499   -1.6648    0.7863 C   0  0  0  0  0  0  0  0  0  0  0  0
    0.2423   -1.9648    1.2162 C   0  0  0  0  0  0  0  0  0  0  0  0
    0.1967    3.8244    4.1223 F   0  0  0  0  0  0  0  0  0  0  0  0
  1  2  1  0  0  0  0
  2  3  1  0  0  0  0
  2  5  1  0  0  0  0
  3  4  1  0  0  0  0
  5  6  4  0  0  0  0
  5 10  4  0  0  0  0
  6  7  4  0  0  0  0
  7  8  4  0  0  0  0
  8  9  4  0  0  0  0
  9 10  4  0  0  0  0
 10 11  1  0  0  0  0
 11 12  4  0  0  0  0
 11 15  4  0  0  0  0
 12 13  1  0  0  0  0
 12 68  4  0  0  0  0
 13 14  1  0  0  0  0
 15 16  1  0  0  0  0
 15 67  4  0  0  0  0
 16 17  1  0  0  0  0
 17 18  1  0  0  0  0
 17 19  1  0  0  0  0
 17 20  1  0  0  0  0
 20 21  1  0  0  0  0
 21 22  1  0  0  0  0
 22 23  1  0  0  0  0
 22 66  2  0  0  0  0
 23 24  1  0  0  0  0
 23 65  1  0  0  0  0
 24 25  1  0  0  0  0
 25 26  1  0  0  0  0
 25 63  1  0  0  0  0
 26 27  1  0  0  0  0
 26 62  2  0  0  0  0
 27 28  1  0  0  0  0
 27 55  1  0  0  0  0
 28 29  1  0  0  0  0
 29 30  1  0  0  0  0
 29 54  2  0  0  0  0
 30 31  1  0  0  0  0
 30 34  1  0  0  0  0
 31 32  1  0  0  0  0
 31 33  1  0  0  0  0
 34 35  1  0  0  0  0
 34 53  1  0  0  0  0
 35 36  1  0  0  0  0
 35 52  2  0  0  0  0
 36 37  1  0  0  0  0
 36 51  1  0  0  0  0
 36 73  1  0  0  0  0
 37 38  1  0  0  0  0
 38 39  1  0  0  0  0
 39 40  1  0  0  0  0
 39 50  1  0  0  0  0
 40 41  1  0  0  0  0
 40 49  2  0  0  0  0
 41 42  1  0  0  0  0
 42 43  1  0  0  0  0
 43 44  1  0  0  0  0
 43 47  1  0  0  0  0
 43 48  1  0  0  0  0
 44 45  1  0  0  0  0
 44 46  1  0  0  0  0
 50 51  1  0  0  0  0
 55 56  1  0  0  0  0
 56 57  1  0  0  0  0
 56 61  1  0  0  0  0
 57 58  1  0  0  0  0
 58 59  1  0  0  0  0
 58 71  1  0  0  0  0
 59 60  1  0  0  0  0
 60 61  1  0  0  0  0
 63 64  1  0  0  0  0
 64 65  1  0  0  0  0
 67 68  4  0  0  0  0
 67 72  4  0  0  0  0
 68 69  4  0  0  0  0
 69 70  4  0  0  0  0
 70 71  4  0  0  0  0
 71 72  4  0  0  0  0
M  END
$$$$
