mol_bioactive_6
  PyMOL3.1          3D                             0

 73 79  0  0  0  0  0  0  0  0999 V2000
    4.2787   -0.2717    5.6145 C   0  0  0  0  0  0  0  0  0  0  0  0
    3.5339   -1.5132    5.6838 C   0  0  0  0  0  0  0  0  0  0  0  0
    3.5579   -2.3060    4.4674 O   0  0  0  0  0  0  0  0  0  0  0  0
    4.7954   -2.7181    3.9264 C   0  0  0  0  0  0  0  0  0  0  0  0
    2.1103   -1.4405    6.0297 C   0  0  0  0  0  0  0  0  0  0  0  0
    1.9659   -2.3892    6.9304 N   0  0  0  0  0  0  0  0  0  0  0  0
    0.8373   -2.5779    7.5785 C   0  0  0  0  0  0  0  0  0  0  0  0
   -0.2567   -1.7645    7.3740 C   0  0  0  0  0  0  0  0  0  0  0  0
   -0.1613   -0.7440    6.4261 C   0  0  0  0  0  0  0  0  0  0  0  0
    1.0287   -0.5615    5.7421 C   0  0  0  0  0  0  0  0  0  0  0  0
    1.0593    0.5051    4.7530 C   0  0  0  0  0  0  0  0  0  0  0  0
    1.0797    1.8258    5.0805 N   0  0  0  0  0  0  0  0  0  0  0  0
    1.1819    2.4269    6.4495 C   0  0  0  0  0  0  0  0  0  0  0  0
   -0.0513    3.0079    6.9515 C   0  0  0  0  0  0  0  0  0  0  0  0
    1.0675    0.3585    3.3393 C   0  0  0  0  0  0  0  0  0  0  0  0
    1.1393   -0.8640    2.4720 C   0  0  0  0  0  0  0  0  0  0  0  0
   -0.2456   -1.5501    2.1191 C   0  0  0  0  0  0  0  0  0  0  0  0
   -0.9426   -2.1068    3.3433 C   0  0  0  0  0  0  0  0  0  0  0  0
    0.0594   -2.7520    1.2690 C   0  0  0  0  0  0  0  0  0  0  0  0
   -1.2096   -0.6003    1.3746 C   0  0  0  0  0  0  0  0  0  0  0  0
   -1.0086   -0.5189   -0.1124 O   0  0  0  0  0  0  0  0  0  0  0  0
   -2.0363   -0.6318   -1.0937 C   0  0  0  0  0  0  0  0  0  0  0  0
   -1.6430   -0.5474   -2.5709 C   0  0  0  0  0  0  0  0  0  0  0  0
   -0.2365   -0.7882   -2.6967 N   0  0  0  0  0  0  0  0  0  0  0  0
    0.3316   -0.8151   -3.9553 N   0  0  0  0  0  0  0  0  0  0  0  0
    1.4001   -0.0008   -4.2585 C   0  0  0  0  0  0  0  0  0  0  0  0
    1.8939    0.9839   -3.2218 C   0  0  0  0  0  0  0  0  0  0  0  0
    3.3507    1.0290   -3.1672 N   0  0  0  0  0  0  0  0  0  0  0  0
    4.1154    0.3481   -2.2903 C   0  0  0  0  0  0  0  0  0  0  0  0
    5.5774    0.6665   -2.3248 C   0  0  0  0  0  0  0  0  0  0  0  0
    6.4741   -0.3940   -3.0344 C   0  0  0  0  0  0  0  0  0  0  0  0
    7.7771    0.1753   -3.4957 C   0  0  0  0  0  0  0  0  0  0  0  0
    5.7767   -1.1927   -4.0856 C   0  0  0  0  0  0  0  0  0  0  0  0
    5.9947    0.9316   -0.9403 N   0  0  0  0  0  0  0  0  0  0  0  0
    5.7477    2.1895   -0.4046 C   0  0  0  0  0  0  0  0  0  0  0  0
    6.0506    2.5973    1.0246 C   0  0  0  0  0  0  0  0  0  0  0  0
    4.9955    1.9828    1.9135 C   0  0  0  0  0  0  0  0  0  0  0  0
    5.2341    2.3059    3.3473 C   0  0  0  0  0  0  0  0  0  0  0  0
    5.3241    3.7600    3.5305 N   0  0  0  0  0  0  0  0  0  0  0  0
    4.5773    4.3724    4.5027 C   0  0  0  0  0  0  0  0  0  0  0  0
    4.3946    5.7546    4.5291 C   0  0  0  0  0  0  0  0  0  0  0  0
    4.2081    6.8916    4.7017 C   0  0  0  0  0  0  0  0  0  0  0  0
    4.0695    8.2997    4.7646 C   0  0  0  0  0  0  0  0  0  0  0  0
    4.0750    8.7248    6.1319 N   0  0  0  0  0  0  0  0  0  0  0  0
    2.8799    8.8280    6.8656 C   0  0  0  0  0  0  0  0  0  0  0  0
    5.2849    8.8014    6.8548 C   0  0  0  0  0  0  0  0  0  0  0  0
    5.2010    8.9544    4.0031 C   0  0  0  0  0  0  0  0  0  0  0  0
    2.7931    8.7287    4.0752 C   0  0  0  0  0  0  0  0  0  0  0  0
    4.0259    3.7013    5.3619 O   0  0  0  0  0  0  0  0  0  0  0  0
    6.2076    4.4752    2.6554 C   0  0  0  0  0  0  0  0  0  0  0  0
    6.0237    4.1256    1.2370 C   0  0  0  0  0  0  0  0  0  0  0  0
    5.2238    3.0323   -1.1483 O   0  0  0  0  0  0  0  0  0  0  0  0
    6.5339   -0.1746   -0.1392 C   0  0  0  0  0  0  0  0  0  0  0  0
    3.6078   -0.3733   -1.4535 O   0  0  0  0  0  0  0  0  0  0  0  0
    1.3436    2.4298   -3.5489 C   0  0  0  0  0  0  0  0  0  0  0  0
    1.0461    3.5032   -2.4479 C   0  0  0  0  0  0  0  0  0  0  0  0
    1.2215    2.9964   -1.0825 C   0  0  0  0  0  0  0  0  0  0  0  0
    1.1999    3.9634   -0.0195 N   0  0  0  0  0  0  0  0  0  0  0  0
    1.2309    5.3629   -0.3349 C   0  0  0  0  0  0  0  0  0  0  0  0
    1.6112    5.7256   -1.7293 C   0  0  0  0  0  0  0  0  0  0  0  0
    1.8868    4.6609   -2.6771 O   0  0  0  0  0  0  0  0  0  0  0  0
    1.9334   -0.0265   -5.3753 O   0  0  0  0  0  0  0  0  0  0  0  0
   -0.2523   -1.7845   -4.8915 C   0  0  0  0  0  0  0  0  0  0  0  0
   -1.7914   -1.6296   -4.8873 C   0  0  0  0  0  0  0  0  0  0  0  0
   -2.3881   -1.5775   -3.4791 C   0  0  0  0  0  0  0  0  0  0  0  0
   -3.2301   -0.7880   -0.8171 O   0  0  0  0  0  0  0  0  0  0  0  0
    1.0717    1.6761    2.8591 C   0  0  0  0  0  0  0  0  0  0  0  0
    1.0650    2.5390    3.9480 C   0  0  0  0  0  0  0  0  0  0  0  0
    1.0784    3.9554    3.7120 C   0  0  0  0  0  0  0  0  0  0  0  0
    1.1274    4.3914    2.3845 C   0  0  0  0  0  0  0  0  0  0  0  0
    1.1440    3.5061    1.3054 C   0  0  0  0  0  0  0  0  0  0  0  0
    1.1166    2.1251    1.5404 C   0  0  0  0  0  0  0  0  0  0  0  0
    7.3194    2.1957    1.3773 F   0  0  0  0  0  0  0  0  0  0  0  0
  1  2  1  0  0  0  0
  2  3  1  0  0  0  0
  2  5  1  0  0  0  0
  3  4  1  0  0  0  0
  5  6  4  0  0  0  0
  5 10  4  0  0  0  0
  6  7  4  0  0  0  0
  7  8  4  0  0  0  0
  8  9  4  0  0  0  0
  9 10  4  0  0  0  0
 10 11  1  0  0  0  0
 11 12  4  0  0  0  0
 11 15  4  0  0  0  0
 12 13  1  0  0  0  0
 12 68  4  0  0  0  0
 13 14  1  0  0  0  0
 15 16  1  0  0  0  0
 15 67  4  0  0  0  0
 16 17  1  0  0  0  0
 17 18  1  0  0  0  0
 17 19  1  0  0  0  0
 17 20  1  0  0  0  0
 20 21  1  0  0  0  0
 21 22  1  0  0  0  0
 22 23  1  0  0  0  0
 22 66  2  0  0  0  0
 23 24  1  0  0  0  0
 23 65  1  0  0  0  0
 24 25  1  0  0  0  0
 25 26  1  0  0  0  0
 25 63  1  0  0  0  0
 26 27  1  0  0  0  0
 26 62  2  0  0  0  0
 27 28  1  0  0  0  0
 27 55  1  0  0  0  0
 28 29  1  0  0  0  0
 29 30  1  0  0  0  0
 29 54  2  0  0  0  0
 30 31  1  0  0  0  0
 30 34  1  0  0  0  0
 31 32  1  0  0  0  0
 31 33  1  0  0  0  0
 34 35  1  0  0  0  0
 34 53  1  0  0  0  0
 35 36  1  0  0  0  0
 35 52  2  0  0  0  0
 36 37  1  0  0  0  0
 36 51  1  0  0  0  0
 36 73  1  0  0  0  0
 37 38  1  0  0  0  0
 38 39  1  0  0  0  0
 39 40  1  0  0  0  0
 39 50  1  0  0  0  0
 40 41  1  0  0  0  0
 40 49  2  0  0  0  0
 41 42  1  0  0  0  0
 42 43  1  0  0  0  0
 43 44  1  0  0  0  0
 43 47  1  0  0  0  0
 43 48  1  0  0  0  0
 44 45  1  0  0  0  0
 44 46  1  0  0  0  0
 50 51  1  0  0  0  0
 55 56  1  0  0  0  0
 56 57  1  0  0  0  0
 56 61  1  0  0  0  0
 57 58  1  0  0  0  0
 58 59  1  0  0  0  0
 58 71  1  0  0  0  0
 59 60  1  0  0  0  0
 60 61  1  0  0  0  0
 63 64  1  0  0  0  0
 64 65  1  0  0  0  0
 67 68  4  0  0  0  0
 67 72  4  0  0  0  0
 68 69  4  0  0  0  0
 69 70  4  0  0  0  0
 70 71  4  0  0  0  0
 71 72  4  0  0  0  0
M  END
$$$$
