mol_ETKDG0_336
  PyMOL3.1          3D                             0

 73 79  0  0  0  0  0  0  0  0999 V2000
   -3.5617   -3.5139    6.3410 C   0  0  0  0  0  0  0  0  0  0  0  0
   -2.3386   -2.6735    6.2608 C   0  0  0  0  0  0  0  0  0  0  0  0
   -2.2416   -1.6544    7.2379 O   0  0  0  0  0  0  0  0  0  0  0  0
   -3.0492   -0.5181    7.0647 C   0  0  0  0  0  0  0  0  0  0  0  0
   -1.0988   -3.4630    6.3587 C   0  0  0  0  0  0  0  0  0  0  0  0
   -0.8004   -3.9925    7.5349 N   0  0  0  0  0  0  0  0  0  0  0  0
    0.2913   -4.7722    7.6950 C   0  0  0  0  0  0  0  0  0  0  0  0
    1.1453   -5.0642    6.6283 C   0  0  0  0  0  0  0  0  0  0  0  0
    0.8393   -4.5191    5.3759 C   0  0  0  0  0  0  0  0  0  0  0  0
   -0.2828   -3.6855    5.2565 C   0  0  0  0  0  0  0  0  0  0  0  0
   -0.5580   -3.1049    3.9607 C   0  0  0  0  0  0  0  0  0  0  0  0
   -1.1807   -3.7897    2.9705 N   0  0  0  0  0  0  0  0  0  0  0  0
   -1.7393   -5.1885    3.0343 C   0  0  0  0  0  0  0  0  0  0  0  0
   -0.9137   -6.1729    2.3229 C   0  0  0  0  0  0  0  0  0  0  0  0
   -0.2776   -1.7679    3.5410 C   0  0  0  0  0  0  0  0  0  0  0  0
    0.2118   -0.5662    4.3000 C   0  0  0  0  0  0  0  0  0  0  0  0
    1.7738   -0.3560    4.4514 C   0  0  0  0  0  0  0  0  0  0  0  0
    1.9626    0.7873    5.4408 C   0  0  0  0  0  0  0  0  0  0  0  0
    2.4433   -1.5247    5.0774 C   0  0  0  0  0  0  0  0  0  0  0  0
    2.4638   -0.0576    3.1152 C   0  0  0  0  0  0  0  0  0  0  0  0
    2.4353    1.3492    2.5652 O   0  0  0  0  0  0  0  0  0  0  0  0
    3.6124    2.0787    2.1634 C   0  0  0  0  0  0  0  0  0  0  0  0
    3.4478    3.4160    1.4473 C   0  0  0  0  0  0  0  0  0  0  0  0
    2.1651    3.9803    1.7227 N   0  0  0  0  0  0  0  0  0  0  0  0
    1.8764    5.2400    1.1844 N   0  0  0  0  0  0  0  0  0  0  0  0
    0.7523    5.4525    0.4335 C   0  0  0  0  0  0  0  0  0  0  0  0
   -0.1866    4.3150    0.2108 C   0  0  0  0  0  0  0  0  0  0  0  0
   -1.5641    4.7435    0.3087 N   0  0  0  0  0  0  0  0  0  0  0  0
   -2.2828    4.5853    1.4122 C   0  0  0  0  0  0  0  0  0  0  0  0
   -3.7360    4.9094    1.3163 C   0  0  0  0  0  0  0  0  0  0  0  0
   -4.1520    6.3250    1.8375 C   0  0  0  0  0  0  0  0  0  0  0  0
   -5.5403    6.6962    1.4136 C   0  0  0  0  0  0  0  0  0  0  0  0
   -3.1488    7.3959    1.5633 C   0  0  0  0  0  0  0  0  0  0  0  0
   -4.4252    3.8414    2.0302 N   0  0  0  0  0  0  0  0  0  0  0  0
   -4.7087    2.6850    1.3432 C   0  0  0  0  0  0  0  0  0  0  0  0
   -5.3370    1.4626    1.9542 C   0  0  0  0  0  0  0  0  0  0  0  0
   -4.2174    0.6771    2.6099 C   0  0  0  0  0  0  0  0  0  0  0  0
   -4.7343   -0.5369    3.2874 C   0  0  0  0  0  0  0  0  0  0  0  0
   -5.4987   -1.3349    2.3216 N   0  0  0  0  0  0  0  0  0  0  0  0
   -5.2132   -2.6595    2.1538 C   0  0  0  0  0  0  0  0  0  0  0  0
   -5.6881   -3.3525    1.0576 C   0  0  0  0  0  0  0  0  0  0  0  0
   -6.0527   -4.0341    0.2027 C   0  0  0  0  0  0  0  0  0  0  0  0
   -6.5711   -4.7385   -0.8970 C   0  0  0  0  0  0  0  0  0  0  0  0
   -6.9427   -6.0644   -0.4936 N   0  0  0  0  0  0  0  0  0  0  0  0
   -5.9306   -6.9814   -0.1280 C   0  0  0  0  0  0  0  0  0  0  0  0
   -8.2601   -6.3485   -0.0547 C   0  0  0  0  0  0  0  0  0  0  0  0
   -5.5301   -4.8074   -2.0115 C   0  0  0  0  0  0  0  0  0  0  0  0
   -7.7549   -3.9885   -1.4743 C   0  0  0  0  0  0  0  0  0  0  0  0
   -4.4954   -3.2499    2.9614 O   0  0  0  0  0  0  0  0  0  0  0  0
   -6.5301   -0.6636    1.5742 C   0  0  0  0  0  0  0  0  0  0  0  0
   -6.0438    0.5721    0.9241 C   0  0  0  0  0  0  0  0  0  0  0  0
   -4.3942    2.6422    0.1359 O   0  0  0  0  0  0  0  0  0  0  0  0
   -4.6597    3.9893    3.4824 C   0  0  0  0  0  0  0  0  0  0  0  0
   -1.7685    4.0732    2.3956 O   0  0  0  0  0  0  0  0  0  0  0  0
    0.0282    3.6499   -1.1948 C   0  0  0  0  0  0  0  0  0  0  0  0
   -0.9208    2.4568   -1.4636 C   0  0  0  0  0  0  0  0  0  0  0  0
   -0.4182    1.2889   -0.6891 C   0  0  0  0  0  0  0  0  0  0  0  0
   -1.1879    0.0990   -0.9582 N   0  0  0  0  0  0  0  0  0  0  0  0
   -1.3574   -0.2091   -2.3931 C   0  0  0  0  0  0  0  0  0  0  0  0
   -1.7692    1.0412   -3.1881 C   0  0  0  0  0  0  0  0  0  0  0  0
   -0.8899    2.1738   -2.8785 O   0  0  0  0  0  0  0  0  0  0  0  0
    0.5077    6.5611   -0.0838 O   0  0  0  0  0  0  0  0  0  0  0  0
    2.8010    6.3109    1.5352 C   0  0  0  0  0  0  0  0  0  0  0  0
    4.2391    5.8425    1.2452 C   0  0  0  0  0  0  0  0  0  0  0  0
    4.5354    4.4649    1.8433 C   0  0  0  0  0  0  0  0  0  0  0  0
    4.7758    1.6856    2.3779 O   0  0  0  0  0  0  0  0  0  0  0  0
   -0.7149   -1.7417    2.2048 C   0  0  0  0  0  0  0  0  0  0  0  0
   -1.2699   -2.9843    1.9024 C   0  0  0  0  0  0  0  0  0  0  0  0
   -1.8420   -3.2079    0.6066 C   0  0  0  0  0  0  0  0  0  0  0  0
   -1.8060   -2.1499   -0.3010 C   0  0  0  0  0  0  0  0  0  0  0  0
   -1.2212   -0.9207    0.0041 C   0  0  0  0  0  0  0  0  0  0  0  0
   -0.6914   -0.6914    1.2899 C   0  0  0  0  0  0  0  0  0  0  0  0
   -6.3213    1.8052    2.8605 F   0  0  0  0  0  0  0  0  0  0  0  0
  1  2  1  0  0  0  0
  2  3  1  0  0  0  0
  2  5  1  0  0  0  0
  3  4  1  0  0  0  0
  5  6  4  0  0  0  0
  5 10  4  0  0  0  0
  6  7  4  0  0  0  0
  7  8  4  0  0  0  0
  8  9  4  0  0  0  0
  9 10  4  0  0  0  0
 10 11  1  0  0  0  0
 11 12  4  0  0  0  0
 11 15  4  0  0  0  0
 12 13  1  0  0  0  0
 12 68  4  0  0  0  0
 13 14  1  0  0  0  0
 15 16  1  0  0  0  0
 15 67  4  0  0  0  0
 16 17  1  0  0  0  0
 17 18  1  0  0  0  0
 17 19  1  0  0  0  0
 17 20  1  0  0  0  0
 20 21  1  0  0  0  0
 21 22  1  0  0  0  0
 22 23  1  0  0  0  0
 22 66  2  0  0  0  0
 23 24  1  0  0  0  0
 23 65  1  0  0  0  0
 24 25  1  0  0  0  0
 25 26  1  0  0  0  0
 25 63  1  0  0  0  0
 26 27  1  0  0  0  0
 26 62  2  0  0  0  0
 27 28  1  0  0  0  0
 27 55  1  0  0  0  0
 28 29  1  0  0  0  0
 29 30  1  0  0  0  0
 29 54  2  0  0  0  0
 30 31  1  0  0  0  0
 30 34  1  0  0  0  0
 31 32  1  0  0  0  0
 31 33  1  0  0  0  0
 34 35  1  0  0  0  0
 34 53  1  0  0  0  0
 35 36  1  0  0  0  0
 35 52  2  0  0  0  0
 36 37  1  0  0  0  0
 36 51  1  0  0  0  0
 36 73  1  0  0  0  0
 37 38  1  0  0  0  0
 38 39  1  0  0  0  0
 39 40  1  0  0  0  0
 39 50  1  0  0  0  0
 40 41  1  0  0  0  0
 40 49  2  0  0  0  0
 41 42  1  0  0  0  0
 42 43  1  0  0  0  0
 43 44  1  0  0  0  0
 43 47  1  0  0  0  0
 43 48  1  0  0  0  0
 44 45  1  0  0  0  0
 44 46  1  0  0  0  0
 50 51  1  0  0  0  0
 55 56  1  0  0  0  0
 56 57  1  0  0  0  0
 56 61  1  0  0  0  0
 57 58  1  0  0  0  0
 58 59  1  0  0  0  0
 58 71  1  0  0  0  0
 59 60  1  0  0  0  0
 60 61  1  0  0  0  0
 63 64  1  0  0  0  0
 64 65  1  0  0  0  0
 67 68  4  0  0  0  0
 67 72  4  0  0  0  0
 68 69  4  0  0  0  0
 69 70  4  0  0  0  0
 70 71  4  0  0  0  0
 71 72  4  0  0  0  0
M  END
$$$$
