mol_ETKDG3_156
  PyMOL3.1          3D                             0

 73 79  0  0  0  0  0  0  0  0999 V2000
    3.1662   -1.2654    4.2783 C   0  0  0  0  0  0  0  0  0  0  0  0
    4.2265   -1.9323    3.5075 C   0  0  0  0  0  0  0  0  0  0  0  0
    5.5638   -1.5307    3.8140 O   0  0  0  0  0  0  0  0  0  0  0  0
    5.9746   -0.2364    3.4281 C   0  0  0  0  0  0  0  0  0  0  0  0
    4.1444   -3.4133    3.6160 C   0  0  0  0  0  0  0  0  0  0  0  0
    4.5985   -3.9812    4.7253 N   0  0  0  0  0  0  0  0  0  0  0  0
    4.5795   -5.3223    4.8946 C   0  0  0  0  0  0  0  0  0  0  0  0
    4.0499   -6.1750    3.9195 C   0  0  0  0  0  0  0  0  0  0  0  0
    3.5654   -5.5988    2.7383 C   0  0  0  0  0  0  0  0  0  0  0  0
    3.5866   -4.2002    2.6059 C   0  0  0  0  0  0  0  0  0  0  0  0
    3.0659   -3.6272    1.3817 C   0  0  0  0  0  0  0  0  0  0  0  0
    3.8574   -3.3354    0.3166 N   0  0  0  0  0  0  0  0  0  0  0  0
    5.3525   -3.5182    0.2025 C   0  0  0  0  0  0  0  0  0  0  0  0
    5.7235   -4.6617   -0.6528 C   0  0  0  0  0  0  0  0  0  0  0  0
    1.7188   -3.2253    1.1218 C   0  0  0  0  0  0  0  0  0  0  0  0
    0.5047   -3.1854    2.0099 C   0  0  0  0  0  0  0  0  0  0  0  0
   -0.4241   -4.4715    2.1028 C   0  0  0  0  0  0  0  0  0  0  0  0
    0.1862   -5.5637    2.9800 C   0  0  0  0  0  0  0  0  0  0  0  0
   -1.6685   -4.0533    2.8321 C   0  0  0  0  0  0  0  0  0  0  0  0
   -0.7919   -5.0691    0.7375 C   0  0  0  0  0  0  0  0  0  0  0  0
   -2.0759   -4.5255    0.1534 O   0  0  0  0  0  0  0  0  0  0  0  0
   -3.1601   -5.3093   -0.3416 C   0  0  0  0  0  0  0  0  0  0  0  0
   -4.3970   -4.5999   -0.8897 C   0  0  0  0  0  0  0  0  0  0  0  0
   -4.5076   -3.2729   -0.3410 N   0  0  0  0  0  0  0  0  0  0  0  0
   -5.6289   -2.4955   -0.6638 N   0  0  0  0  0  0  0  0  0  0  0  0
   -5.4986   -1.2061   -1.1306 C   0  0  0  0  0  0  0  0  0  0  0  0
   -4.1185   -0.6397   -1.3354 C   0  0  0  0  0  0  0  0  0  0  0  0
   -4.0273    0.7643   -0.9515 N   0  0  0  0  0  0  0  0  0  0  0  0
   -3.4034    1.2077    0.1676 C   0  0  0  0  0  0  0  0  0  0  0  0
   -3.2647    2.6967    0.2975 C   0  0  0  0  0  0  0  0  0  0  0  0
   -4.2930    3.3665    1.2456 C   0  0  0  0  0  0  0  0  0  0  0  0
   -5.3243    2.5185    1.8339 C   0  0  0  0  0  0  0  0  0  0  0  0
   -4.7351    4.7300    0.8062 C   0  0  0  0  0  0  0  0  0  0  0  0
   -1.8728    2.9574    0.7066 N   0  0  0  0  0  0  0  0  0  0  0  0
   -0.8735    2.9000   -0.2485 C   0  0  0  0  0  0  0  0  0  0  0  0
    0.6087    3.0571    0.0229 C   0  0  0  0  0  0  0  0  0  0  0  0
    1.4307    3.3041   -1.2576 C   0  0  0  0  0  0  0  0  0  0  0  0
    2.9043    3.3194   -0.9645 C   0  0  0  0  0  0  0  0  0  0  0  0
    3.2965    2.1141   -0.2009 N   0  0  0  0  0  0  0  0  0  0  0  0
    4.3338    1.2775   -0.5356 C   0  0  0  0  0  0  0  0  0  0  0  0
    5.0726    1.3982   -1.7074 C   0  0  0  0  0  0  0  0  0  0  0  0
    5.8038    1.4409   -2.6357 C   0  0  0  0  0  0  0  0  0  0  0  0
    6.5650    1.6101   -3.8047 C   0  0  0  0  0  0  0  0  0  0  0  0
    6.2643    2.8431   -4.4625 N   0  0  0  0  0  0  0  0  0  0  0  0
    4.9322    3.2107   -4.6342 C   0  0  0  0  0  0  0  0  0  0  0  0
    7.1905    3.4494   -5.3364 C   0  0  0  0  0  0  0  0  0  0  0  0
    8.0338    1.5912   -3.4314 C   0  0  0  0  0  0  0  0  0  0  0  0
    6.3182    0.4661   -4.7888 C   0  0  0  0  0  0  0  0  0  0  0  0
    4.6261    0.3385    0.2414 O   0  0  0  0  0  0  0  0  0  0  0  0
    2.5215    1.8172    0.9671 C   0  0  0  0  0  0  0  0  0  0  0  0
    1.0716    1.7550    0.6518 C   0  0  0  0  0  0  0  0  0  0  0  0
   -1.2247    2.6696   -1.4236 O   0  0  0  0  0  0  0  0  0  0  0  0
   -1.5700    3.1676    2.1379 C   0  0  0  0  0  0  0  0  0  0  0  0
   -2.8633    0.4248    0.9327 O   0  0  0  0  0  0  0  0  0  0  0  0
   -3.7108   -0.7966   -2.8615 C   0  0  0  0  0  0  0  0  0  0  0  0
   -2.2571   -0.3539   -3.1962 C   0  0  0  0  0  0  0  0  0  0  0  0
   -1.3446   -1.4410   -2.7392 C   0  0  0  0  0  0  0  0  0  0  0  0
    0.0370   -1.1773   -3.0814 N   0  0  0  0  0  0  0  0  0  0  0  0
    0.2623   -0.8629   -4.5070 C   0  0  0  0  0  0  0  0  0  0  0  0
   -0.7628    0.1759   -5.0070 C   0  0  0  0  0  0  0  0  0  0  0  0
   -2.1391   -0.1981   -4.6392 O   0  0  0  0  0  0  0  0  0  0  0  0
   -6.4900   -0.5186   -1.4391 O   0  0  0  0  0  0  0  0  0  0  0  0
   -6.9308   -3.1181   -0.4150 C   0  0  0  0  0  0  0  0  0  0  0  0
   -6.9463   -4.5534   -0.9842 C   0  0  0  0  0  0  0  0  0  0  0  0
   -5.7168   -5.3712   -0.5803 C   0  0  0  0  0  0  0  0  0  0  0  0
   -3.1344   -6.5661   -0.3677 O   0  0  0  0  0  0  0  0  0  0  0  0
    1.7663   -2.7332   -0.2045 C   0  0  0  0  0  0  0  0  0  0  0  0
    3.0875   -2.8070   -0.6495 C   0  0  0  0  0  0  0  0  0  0  0  0
    3.4207   -2.3107   -1.9614 C   0  0  0  0  0  0  0  0  0  0  0  0
    2.3804   -1.7728   -2.7338 C   0  0  0  0  0  0  0  0  0  0  0  0
    1.0561   -1.7176   -2.2747 C   0  0  0  0  0  0  0  0  0  0  0  0
    0.7388   -2.1971   -0.9833 C   0  0  0  0  0  0  0  0  0  0  0  0
    0.8524    4.1308    0.8621 F   0  0  0  0  0  0  0  0  0  0  0  0
  1  2  1  0  0  0  0
  2  3  1  0  0  0  0
  2  5  1  0  0  0  0
  3  4  1  0  0  0  0
  5  6  4  0  0  0  0
  5 10  4  0  0  0  0
  6  7  4  0  0  0  0
  7  8  4  0  0  0  0
  8  9  4  0  0  0  0
  9 10  4  0  0  0  0
 10 11  1  0  0  0  0
 11 12  4  0  0  0  0
 11 15  4  0  0  0  0
 12 13  1  0  0  0  0
 12 68  4  0  0  0  0
 13 14  1  0  0  0  0
 15 16  1  0  0  0  0
 15 67  4  0  0  0  0
 16 17  1  0  0  0  0
 17 18  1  0  0  0  0
 17 19  1  0  0  0  0
 17 20  1  0  0  0  0
 20 21  1  0  0  0  0
 21 22  1  0  0  0  0
 22 23  1  0  0  0  0
 22 66  2  0  0  0  0
 23 24  1  0  0  0  0
 23 65  1  0  0  0  0
 24 25  1  0  0  0  0
 25 26  1  0  0  0  0
 25 63  1  0  0  0  0
 26 27  1  0  0  0  0
 26 62  2  0  0  0  0
 27 28  1  0  0  0  0
 27 55  1  0  0  0  0
 28 29  1  0  0  0  0
 29 30  1  0  0  0  0
 29 54  2  0  0  0  0
 30 31  1  0  0  0  0
 30 34  1  0  0  0  0
 31 32  1  0  0  0  0
 31 33  1  0  0  0  0
 34 35  1  0  0  0  0
 34 53  1  0  0  0  0
 35 36  1  0  0  0  0
 35 52  2  0  0  0  0
 36 37  1  0  0  0  0
 36 51  1  0  0  0  0
 36 73  1  0  0  0  0
 37 38  1  0  0  0  0
 38 39  1  0  0  0  0
 39 40  1  0  0  0  0
 39 50  1  0  0  0  0
 40 41  1  0  0  0  0
 40 49  2  0  0  0  0
 41 42  1  0  0  0  0
 42 43  1  0  0  0  0
 43 44  1  0  0  0  0
 43 47  1  0  0  0  0
 43 48  1  0  0  0  0
 44 45  1  0  0  0  0
 44 46  1  0  0  0  0
 50 51  1  0  0  0  0
 55 56  1  0  0  0  0
 56 57  1  0  0  0  0
 56 61  1  0  0  0  0
 57 58  1  0  0  0  0
 58 59  1  0  0  0  0
 58 71  1  0  0  0  0
 59 60  1  0  0  0  0
 60 61  1  0  0  0  0
 63 64  1  0  0  0  0
 64 65  1  0  0  0  0
 67 68  4  0  0  0  0
 67 72  4  0  0  0  0
 68 69  4  0  0  0  0
 69 70  4  0  0  0  0
 70 71  4  0  0  0  0
 71 72  4  0  0  0  0
M  END
$$$$
