mol_ETKDG2_119
  PyMOL3.1          3D                             0

 73 79  0  0  0  0  0  0  0  0999 V2000
    5.1722    0.0750    2.1361 C   0  0  0  0  0  0  0  0  0  0  0  0
    4.1134   -0.8632    2.5574 C   0  0  0  0  0  0  0  0  0  0  0  0
    4.2894   -2.2123    2.1739 O   0  0  0  0  0  0  0  0  0  0  0  0
    4.0215   -2.5356    0.8336 C   0  0  0  0  0  0  0  0  0  0  0  0
    3.8867   -0.8499    4.0072 C   0  0  0  0  0  0  0  0  0  0  0  0
    4.7285   -1.5240    4.7726 N   0  0  0  0  0  0  0  0  0  0  0  0
    4.6134   -1.5176    6.1160 C   0  0  0  0  0  0  0  0  0  0  0  0
    3.6101   -0.7907    6.7583 C   0  0  0  0  0  0  0  0  0  0  0  0
    2.7197   -0.0636    5.9694 C   0  0  0  0  0  0  0  0  0  0  0  0
    2.8562   -0.1163    4.5712 C   0  0  0  0  0  0  0  0  0  0  0  0
    1.8922    0.6040    3.7746 C   0  0  0  0  0  0  0  0  0  0  0  0
    1.9270    1.9452    3.6019 N   0  0  0  0  0  0  0  0  0  0  0  0
    2.9877    2.8916    4.0754 C   0  0  0  0  0  0  0  0  0  0  0  0
    2.5885    3.8124    5.1098 C   0  0  0  0  0  0  0  0  0  0  0  0
    0.8312    0.0311    3.0307 C   0  0  0  0  0  0  0  0  0  0  0  0
    0.4764   -1.4027    2.7584 C   0  0  0  0  0  0  0  0  0  0  0  0
   -0.4456   -2.1147    3.8233 C   0  0  0  0  0  0  0  0  0  0  0  0
    0.2151   -2.2973    5.1695 C   0  0  0  0  0  0  0  0  0  0  0  0
   -0.6938   -3.5112    3.3244 C   0  0  0  0  0  0  0  0  0  0  0  0
   -1.7459   -1.3788    4.0175 C   0  0  0  0  0  0  0  0  0  0  0  0
   -2.8357   -1.7637    3.0519 O   0  0  0  0  0  0  0  0  0  0  0  0
   -4.1818   -2.0029    3.4105 C   0  0  0  0  0  0  0  0  0  0  0  0
   -5.1681   -2.3769    2.3270 C   0  0  0  0  0  0  0  0  0  0  0  0
   -4.4704   -2.7146    1.1247 N   0  0  0  0  0  0  0  0  0  0  0  0
   -5.2218   -3.1230    0.0337 N   0  0  0  0  0  0  0  0  0  0  0  0
   -5.0829   -2.5134   -1.1833 C   0  0  0  0  0  0  0  0  0  0  0  0
   -4.1147   -1.3757   -1.3075 C   0  0  0  0  0  0  0  0  0  0  0  0
   -3.3811   -1.4023   -2.5545 N   0  0  0  0  0  0  0  0  0  0  0  0
   -2.1028   -1.8140   -2.6401 C   0  0  0  0  0  0  0  0  0  0  0  0
   -1.4230   -1.6207   -3.9487 C   0  0  0  0  0  0  0  0  0  0  0  0
   -1.3721   -2.8666   -4.8770 C   0  0  0  0  0  0  0  0  0  0  0  0
   -1.0434   -2.5107   -6.2868 C   0  0  0  0  0  0  0  0  0  0  0  0
   -2.5583   -3.7622   -4.7589 C   0  0  0  0  0  0  0  0  0  0  0  0
   -0.0877   -1.0931   -3.6557 N   0  0  0  0  0  0  0  0  0  0  0  0
    0.0470    0.2633   -3.4764 C   0  0  0  0  0  0  0  0  0  0  0  0
    1.3302    0.9838   -3.1188 C   0  0  0  0  0  0  0  0  0  0  0  0
    1.2742    2.4677   -3.5053 C   0  0  0  0  0  0  0  0  0  0  0  0
    2.4772    3.2172   -3.0071 C   0  0  0  0  0  0  0  0  0  0  0  0
    2.6454    2.9772   -1.5671 N   0  0  0  0  0  0  0  0  0  0  0  0
    2.6444    3.9835   -0.6312 C   0  0  0  0  0  0  0  0  0  0  0  0
    1.8812    5.1332   -0.7888 C   0  0  0  0  0  0  0  0  0  0  0  0
    1.2831    6.1391   -0.8406 C   0  0  0  0  0  0  0  0  0  0  0  0
    0.4873    7.2943   -1.0599 C   0  0  0  0  0  0  0  0  0  0  0  0
    1.2851    8.4660   -0.9865 N   0  0  0  0  0  0  0  0  0  0  0  0
    1.9923    8.9175   -2.1163 C   0  0  0  0  0  0  0  0  0  0  0  0
    1.5663    9.0892    0.2422 C   0  0  0  0  0  0  0  0  0  0  0  0
   -0.6403    7.3509   -0.0545 C   0  0  0  0  0  0  0  0  0  0  0  0
   -0.1858    7.2017   -2.4207 C   0  0  0  0  0  0  0  0  0  0  0  0
    3.2665    3.8384    0.4272 O   0  0  0  0  0  0  0  0  0  0  0  0
    2.7423    1.6072   -1.1634 C   0  0  0  0  0  0  0  0  0  0  0  0
    1.5017    0.8719   -1.6080 C   0  0  0  0  0  0  0  0  0  0  0  0
   -0.9798    0.9491   -3.5893 O   0  0  0  0  0  0  0  0  0  0  0  0
    1.0226   -2.0377   -3.4412 C   0  0  0  0  0  0  0  0  0  0  0  0
   -1.5204   -2.2028   -1.6431 O   0  0  0  0  0  0  0  0  0  0  0  0
   -4.8680   -0.0023   -1.1693 C   0  0  0  0  0  0  0  0  0  0  0  0
   -3.9365    1.2322   -1.1663 C   0  0  0  0  0  0  0  0  0  0  0  0
   -3.2630    1.2805    0.1576 C   0  0  0  0  0  0  0  0  0  0  0  0
   -2.4462    2.4545    0.3014 N   0  0  0  0  0  0  0  0  0  0  0  0
   -3.1091    3.7245   -0.0090 C   0  0  0  0  0  0  0  0  0  0  0  0
   -3.9173    3.6209   -1.3058 C   0  0  0  0  0  0  0  0  0  0  0  0
   -4.7530    2.4146   -1.3367 O   0  0  0  0  0  0  0  0  0  0  0  0
   -5.7552   -2.8546   -2.1651 O   0  0  0  0  0  0  0  0  0  0  0  0
   -6.1019   -4.2689    0.2625 C   0  0  0  0  0  0  0  0  0  0  0  0
   -6.9250   -4.0406    1.5469 C   0  0  0  0  0  0  0  0  0  0  0  0
   -6.0698   -3.5782    2.7244 C   0  0  0  0  0  0  0  0  0  0  0  0
   -4.6281   -1.9310    4.5798 O   0  0  0  0  0  0  0  0  0  0  0  0
    0.1918    1.1400    2.4638 C   0  0  0  0  0  0  0  0  0  0  0  0
    0.8880    2.2855    2.8316 C   0  0  0  0  0  0  0  0  0  0  0  0
    0.4412    3.5566    2.3542 C   0  0  0  0  0  0  0  0  0  0  0  0
   -0.6614    3.5700    1.5114 C   0  0  0  0  0  0  0  0  0  0  0  0
   -1.3389    2.4078    1.1487 C   0  0  0  0  0  0  0  0  0  0  0  0
   -0.9030    1.1665    1.6235 C   0  0  0  0  0  0  0  0  0  0  0  0
    2.4174    0.4392   -3.7682 F   0  0  0  0  0  0  0  0  0  0  0  0
  1  2  1  0  0  0  0
  2  3  1  0  0  0  0
  2  5  1  0  0  0  0
  3  4  1  0  0  0  0
  5  6  4  0  0  0  0
  5 10  4  0  0  0  0
  6  7  4  0  0  0  0
  7  8  4  0  0  0  0
  8  9  4  0  0  0  0
  9 10  4  0  0  0  0
 10 11  1  0  0  0  0
 11 12  4  0  0  0  0
 11 15  4  0  0  0  0
 12 13  1  0  0  0  0
 12 68  4  0  0  0  0
 13 14  1  0  0  0  0
 15 16  1  0  0  0  0
 15 67  4  0  0  0  0
 16 17  1  0  0  0  0
 17 18  1  0  0  0  0
 17 19  1  0  0  0  0
 17 20  1  0  0  0  0
 20 21  1  0  0  0  0
 21 22  1  0  0  0  0
 22 23  1  0  0  0  0
 22 66  2  0  0  0  0
 23 24  1  0  0  0  0
 23 65  1  0  0  0  0
 24 25  1  0  0  0  0
 25 26  1  0  0  0  0
 25 63  1  0  0  0  0
 26 27  1  0  0  0  0
 26 62  2  0  0  0  0
 27 28  1  0  0  0  0
 27 55  1  0  0  0  0
 28 29  1  0  0  0  0
 29 30  1  0  0  0  0
 29 54  2  0  0  0  0
 30 31  1  0  0  0  0
 30 34  1  0  0  0  0
 31 32  1  0  0  0  0
 31 33  1  0  0  0  0
 34 35  1  0  0  0  0
 34 53  1  0  0  0  0
 35 36  1  0  0  0  0
 35 52  2  0  0  0  0
 36 37  1  0  0  0  0
 36 51  1  0  0  0  0
 36 73  1  0  0  0  0
 37 38  1  0  0  0  0
 38 39  1  0  0  0  0
 39 40  1  0  0  0  0
 39 50  1  0  0  0  0
 40 41  1  0  0  0  0
 40 49  2  0  0  0  0
 41 42  1  0  0  0  0
 42 43  1  0  0  0  0
 43 44  1  0  0  0  0
 43 47  1  0  0  0  0
 43 48  1  0  0  0  0
 44 45  1  0  0  0  0
 44 46  1  0  0  0  0
 50 51  1  0  0  0  0
 55 56  1  0  0  0  0
 56 57  1  0  0  0  0
 56 61  1  0  0  0  0
 57 58  1  0  0  0  0
 58 59  1  0  0  0  0
 58 71  1  0  0  0  0
 59 60  1  0  0  0  0
 60 61  1  0  0  0  0
 63 64  1  0  0  0  0
 64 65  1  0  0  0  0
 67 68  4  0  0  0  0
 67 72  4  0  0  0  0
 68 69  4  0  0  0  0
 69 70  4  0  0  0  0
 70 71  4  0  0  0  0
 71 72  4  0  0  0  0
M  END
$$$$
