mol_ETKDG2_114
  PyMOL3.1          3D                             0

 73 79  0  0  0  0  0  0  0  0999 V2000
   -4.1351    0.3295    3.4705 C   0  0  0  0  0  0  0  0  0  0  0  0
   -4.8663   -0.2499    2.3211 C   0  0  0  0  0  0  0  0  0  0  0  0
   -5.6485    0.6723    1.5713 O   0  0  0  0  0  0  0  0  0  0  0  0
   -4.9652    1.6396    0.8094 C   0  0  0  0  0  0  0  0  0  0  0  0
   -5.7659   -1.3559    2.7100 C   0  0  0  0  0  0  0  0  0  0  0  0
   -6.9347   -1.0371    3.2495 N   0  0  0  0  0  0  0  0  0  0  0  0
   -7.8053   -1.9865    3.6636 C   0  0  0  0  0  0  0  0  0  0  0  0
   -7.5111   -3.3483    3.5475 C   0  0  0  0  0  0  0  0  0  0  0  0
   -6.2817   -3.7095    2.9867 C   0  0  0  0  0  0  0  0  0  0  0  0
   -5.4119   -2.6910    2.5483 C   0  0  0  0  0  0  0  0  0  0  0  0
   -4.1626   -3.0946    1.9515 C   0  0  0  0  0  0  0  0  0  0  0  0
   -3.0831   -3.4504    2.6859 N   0  0  0  0  0  0  0  0  0  0  0  0
   -2.9335   -3.4020    4.1834 C   0  0  0  0  0  0  0  0  0  0  0  0
   -3.0586   -4.7278    4.8117 C   0  0  0  0  0  0  0  0  0  0  0  0
   -3.8507   -3.1358    0.5722 C   0  0  0  0  0  0  0  0  0  0  0  0
   -4.6147   -2.6166   -0.6148 C   0  0  0  0  0  0  0  0  0  0  0  0
   -5.6782   -3.5691   -1.2679 C   0  0  0  0  0  0  0  0  0  0  0  0
   -6.8638   -3.8687   -0.3760 C   0  0  0  0  0  0  0  0  0  0  0  0
   -6.2920   -2.8457   -2.4481 C   0  0  0  0  0  0  0  0  0  0  0  0
   -5.0242   -4.8419   -1.6976 C   0  0  0  0  0  0  0  0  0  0  0  0
   -4.3853   -4.7544   -3.0689 O   0  0  0  0  0  0  0  0  0  0  0  0
   -4.5157   -5.7499   -4.0778 C   0  0  0  0  0  0  0  0  0  0  0  0
   -3.8462   -5.5577   -5.4241 C   0  0  0  0  0  0  0  0  0  0  0  0
   -3.2525   -4.2491   -5.5374 N   0  0  0  0  0  0  0  0  0  0  0  0
   -2.6199   -3.9582   -6.7474 N   0  0  0  0  0  0  0  0  0  0  0  0
   -1.3185   -3.5422   -6.7929 C   0  0  0  0  0  0  0  0  0  0  0  0
   -0.5913   -3.3235   -5.5013 C   0  0  0  0  0  0  0  0  0  0  0  0
    0.3076   -2.1914   -5.5586 N   0  0  0  0  0  0  0  0  0  0  0  0
    0.0205   -1.0065   -5.0046 C   0  0  0  0  0  0  0  0  0  0  0  0
    1.1267   -0.0075   -4.9906 C   0  0  0  0  0  0  0  0  0  0  0  0
    1.0514    1.0671   -6.1294 C   0  0  0  0  0  0  0  0  0  0  0  0
    2.2488    1.9600   -6.1610 C   0  0  0  0  0  0  0  0  0  0  0  0
    0.7620    0.4593   -7.4809 C   0  0  0  0  0  0  0  0  0  0  0  0
    1.1447    0.5671   -3.6457 N   0  0  0  0  0  0  0  0  0  0  0  0
    1.8375   -0.1131   -2.6620 C   0  0  0  0  0  0  0  0  0  0  0  0
    1.8986    0.2992   -1.2127 C   0  0  0  0  0  0  0  0  0  0  0  0
    3.0438   -0.3808   -0.4376 C   0  0  0  0  0  0  0  0  0  0  0  0
    2.9794   -0.0396    1.0257 C   0  0  0  0  0  0  0  0  0  0  0  0
    1.6180   -0.2929    1.5574 N   0  0  0  0  0  0  0  0  0  0  0  0
    1.3466   -1.0549    2.6597 C   0  0  0  0  0  0  0  0  0  0  0  0
    2.2135   -2.0150    3.1229 C   0  0  0  0  0  0  0  0  0  0  0  0
    2.8785   -2.8152    3.6194 C   0  0  0  0  0  0  0  0  0  0  0  0
    3.8215   -3.7491    4.0873 C   0  0  0  0  0  0  0  0  0  0  0  0
    4.5019   -3.1937    5.2136 N   0  0  0  0  0  0  0  0  0  0  0  0
    5.6972   -2.4725    5.0576 C   0  0  0  0  0  0  0  0  0  0  0  0
    3.8902   -3.1920    6.4918 C   0  0  0  0  0  0  0  0  0  0  0  0
    4.7825   -4.0850    2.9494 C   0  0  0  0  0  0  0  0  0  0  0  0
    3.1698   -5.0645    4.4735 C   0  0  0  0  0  0  0  0  0  0  0  0
    0.2453   -0.9319    3.2352 O   0  0  0  0  0  0  0  0  0  0  0  0
    0.5332    0.2959    0.8481 C   0  0  0  0  0  0  0  0  0  0  0  0
    0.5730   -0.1134   -0.5867 C   0  0  0  0  0  0  0  0  0  0  0  0
    2.4303   -1.1631   -2.9985 O   0  0  0  0  0  0  0  0  0  0  0  0
    0.3268    1.7660   -3.3688 C   0  0  0  0  0  0  0  0  0  0  0  0
   -1.0486   -0.8255   -4.4396 O   0  0  0  0  0  0  0  0  0  0  0  0
    0.2399   -4.6107   -5.1166 C   0  0  0  0  0  0  0  0  0  0  0  0
    0.9259   -4.4999   -3.7264 C   0  0  0  0  0  0  0  0  0  0  0  0
   -0.1184   -4.7866   -2.7060 C   0  0  0  0  0  0  0  0  0  0  0  0
    0.4247   -4.7622   -1.3706 N   0  0  0  0  0  0  0  0  0  0  0  0
    1.6107   -5.6204   -1.1827 C   0  0  0  0  0  0  0  0  0  0  0  0
    2.6292   -5.4114   -2.3248 C   0  0  0  0  0  0  0  0  0  0  0  0
    1.9733   -5.4935   -3.6406 O   0  0  0  0  0  0  0  0  0  0  0  0
   -0.7169   -3.3719   -7.8751 O   0  0  0  0  0  0  0  0  0  0  0  0
   -3.4631   -4.0531   -7.9466 C   0  0  0  0  0  0  0  0  0  0  0  0
   -4.1519   -5.4398   -7.9539 C   0  0  0  0  0  0  0  0  0  0  0  0
   -4.8293   -5.7608   -6.6118 C   0  0  0  0  0  0  0  0  0  0  0  0
   -5.1537   -6.8205   -3.9365 O   0  0  0  0  0  0  0  0  0  0  0  0
   -2.5385   -3.6559    0.5362 C   0  0  0  0  0  0  0  0  0  0  0  0
   -2.1062   -3.8103    1.8470 C   0  0  0  0  0  0  0  0  0  0  0  0
   -0.7690   -4.2681    2.1042 C   0  0  0  0  0  0  0  0  0  0  0  0
    0.0349   -4.5477    1.0055 C   0  0  0  0  0  0  0  0  0  0  0  0
   -0.4140   -4.4227   -0.3010 C   0  0  0  0  0  0  0  0  0  0  0  0
   -1.7200   -3.9352   -0.5610 C   0  0  0  0  0  0  0  0  0  0  0  0
    2.1012    1.6651   -1.0993 F   0  0  0  0  0  0  0  0  0  0  0  0
  1  2  1  0  0  0  0
  2  3  1  0  0  0  0
  2  5  1  0  0  0  0
  3  4  1  0  0  0  0
  5  6  4  0  0  0  0
  5 10  4  0  0  0  0
  6  7  4  0  0  0  0
  7  8  4  0  0  0  0
  8  9  4  0  0  0  0
  9 10  4  0  0  0  0
 10 11  1  0  0  0  0
 11 12  4  0  0  0  0
 11 15  4  0  0  0  0
 12 13  1  0  0  0  0
 12 68  4  0  0  0  0
 13 14  1  0  0  0  0
 15 16  1  0  0  0  0
 15 67  4  0  0  0  0
 16 17  1  0  0  0  0
 17 18  1  0  0  0  0
 17 19  1  0  0  0  0
 17 20  1  0  0  0  0
 20 21  1  0  0  0  0
 21 22  1  0  0  0  0
 22 23  1  0  0  0  0
 22 66  2  0  0  0  0
 23 24  1  0  0  0  0
 23 65  1  0  0  0  0
 24 25  1  0  0  0  0
 25 26  1  0  0  0  0
 25 63  1  0  0  0  0
 26 27  1  0  0  0  0
 26 62  2  0  0  0  0
 27 28  1  0  0  0  0
 27 55  1  0  0  0  0
 28 29  1  0  0  0  0
 29 30  1  0  0  0  0
 29 54  2  0  0  0  0
 30 31  1  0  0  0  0
 30 34  1  0  0  0  0
 31 32  1  0  0  0  0
 31 33  1  0  0  0  0
 34 35  1  0  0  0  0
 34 53  1  0  0  0  0
 35 36  1  0  0  0  0
 35 52  2  0  0  0  0
 36 37  1  0  0  0  0
 36 51  1  0  0  0  0
 36 73  1  0  0  0  0
 37 38  1  0  0  0  0
 38 39  1  0  0  0  0
 39 40  1  0  0  0  0
 39 50  1  0  0  0  0
 40 41  1  0  0  0  0
 40 49  2  0  0  0  0
 41 42  1  0  0  0  0
 42 43  1  0  0  0  0
 43 44  1  0  0  0  0
 43 47  1  0  0  0  0
 43 48  1  0  0  0  0
 44 45  1  0  0  0  0
 44 46  1  0  0  0  0
 50 51  1  0  0  0  0
 55 56  1  0  0  0  0
 56 57  1  0  0  0  0
 56 61  1  0  0  0  0
 57 58  1  0  0  0  0
 58 59  1  0  0  0  0
 58 71  1  0  0  0  0
 59 60  1  0  0  0  0
 60 61  1  0  0  0  0
 63 64  1  0  0  0  0
 64 65  1  0  0  0  0
 67 68  4  0  0  0  0
 67 72  4  0  0  0  0
 68 69  4  0  0  0  0
 69 70  4  0  0  0  0
 70 71  4  0  0  0  0
 71 72  4  0  0  0  0
M  END
$$$$
