mol_ETKDG0_326
  PyMOL3.1          3D                             0

 73 79  0  0  0  0  0  0  0  0999 V2000
    4.4804    0.7647   -0.5556 C   0  0  0  0  0  0  0  0  0  0  0  0
    3.6327    0.6516    0.6522 C   0  0  0  0  0  0  0  0  0  0  0  0
    3.9309   -0.4719    1.4710 O   0  0  0  0  0  0  0  0  0  0  0  0
    3.2984   -1.6663    1.1492 C   0  0  0  0  0  0  0  0  0  0  0  0
    3.7171    1.8318    1.5235 C   0  0  0  0  0  0  0  0  0  0  0  0
    4.7357    1.9139    2.3595 N   0  0  0  0  0  0  0  0  0  0  0  0
    4.8988    2.9868    3.1629 C   0  0  0  0  0  0  0  0  0  0  0  0
    4.0076    4.0584    3.1383 C   0  0  0  0  0  0  0  0  0  0  0  0
    2.9281    3.9946    2.2513 C   0  0  0  0  0  0  0  0  0  0  0  0
    2.7798    2.8467    1.4556 C   0  0  0  0  0  0  0  0  0  0  0  0
    1.6416    2.7822    0.5736 C   0  0  0  0  0  0  0  0  0  0  0  0
    1.5970    3.4078   -0.6215 N   0  0  0  0  0  0  0  0  0  0  0  0
    2.6871    4.1963   -1.2822 C   0  0  0  0  0  0  0  0  0  0  0  0
    2.4678    5.6413   -1.2078 C   0  0  0  0  0  0  0  0  0  0  0  0
    0.4516    2.0451    0.7856 C   0  0  0  0  0  0  0  0  0  0  0  0
    0.1102    1.0409    1.8398 C   0  0  0  0  0  0  0  0  0  0  0  0
   -0.5730    1.5689    3.1484 C   0  0  0  0  0  0  0  0  0  0  0  0
    0.1796    2.6773    3.8336 C   0  0  0  0  0  0  0  0  0  0  0  0
   -0.5988    0.4445    4.1514 C   0  0  0  0  0  0  0  0  0  0  0  0
   -1.9422    2.0371    2.8043 C   0  0  0  0  0  0  0  0  0  0  0  0
   -2.9696    0.9145    2.6535 O   0  0  0  0  0  0  0  0  0  0  0  0
   -4.2464    0.9294    3.2788 C   0  0  0  0  0  0  0  0  0  0  0  0
   -5.2364   -0.1721    3.0119 C   0  0  0  0  0  0  0  0  0  0  0  0
   -4.7224   -1.1893    2.1439 N   0  0  0  0  0  0  0  0  0  0  0  0
   -5.5870   -2.2424    1.8412 N   0  0  0  0  0  0  0  0  0  0  0  0
   -5.8488   -2.6033    0.5465 C   0  0  0  0  0  0  0  0  0  0  0  0
   -5.1237   -1.9060   -0.5621 C   0  0  0  0  0  0  0  0  0  0  0  0
   -4.7891   -2.8098   -1.6381 N   0  0  0  0  0  0  0  0  0  0  0  0
   -3.5749   -3.3436   -1.7738 C   0  0  0  0  0  0  0  0  0  0  0  0
   -3.3091   -4.1165   -3.0209 C   0  0  0  0  0  0  0  0  0  0  0  0
   -3.5018   -5.6323   -2.9369 C   0  0  0  0  0  0  0  0  0  0  0  0
   -3.7534   -6.3015   -4.2318 C   0  0  0  0  0  0  0  0  0  0  0  0
   -4.2181   -6.1672   -1.7688 C   0  0  0  0  0  0  0  0  0  0  0  0
   -1.9581   -3.7773   -3.4470 N   0  0  0  0  0  0  0  0  0  0  0  0
   -1.7757   -2.6259   -4.1645 C   0  0  0  0  0  0  0  0  0  0  0  0
   -0.4441   -2.1003   -4.6129 C   0  0  0  0  0  0  0  0  0  0  0  0
   -0.5415   -1.0427   -5.7128 C   0  0  0  0  0  0  0  0  0  0  0  0
    0.7923   -0.4642   -6.0114 C   0  0  0  0  0  0  0  0  0  0  0  0
    1.4773   -0.0272   -4.7784 N   0  0  0  0  0  0  0  0  0  0  0  0
    2.0637    1.1864   -4.6365 C   0  0  0  0  0  0  0  0  0  0  0  0
    1.9129    2.1494   -5.5930 C   0  0  0  0  0  0  0  0  0  0  0  0
    1.8925    3.0131   -6.3401 C   0  0  0  0  0  0  0  0  0  0  0  0
    1.7451    4.0058   -7.3305 C   0  0  0  0  0  0  0  0  0  0  0  0
    2.4938    5.1643   -6.9536 N   0  0  0  0  0  0  0  0  0  0  0  0
    2.0060    5.9752   -5.9104 C   0  0  0  0  0  0  0  0  0  0  0  0
    3.8735    5.2371   -7.2300 C   0  0  0  0  0  0  0  0  0  0  0  0
    2.2132    3.4499   -8.6596 C   0  0  0  0  0  0  0  0  0  0  0  0
    0.2878    4.3644   -7.5055 C   0  0  0  0  0  0  0  0  0  0  0  0
    2.7355    1.4417   -3.6202 O   0  0  0  0  0  0  0  0  0  0  0  0
    1.5223   -0.9421   -3.6923 C   0  0  0  0  0  0  0  0  0  0  0  0
    0.1920   -1.4724   -3.3812 C   0  0  0  0  0  0  0  0  0  0  0  0
   -2.7927   -1.9566   -4.4309 O   0  0  0  0  0  0  0  0  0  0  0  0
   -0.8294   -4.6198   -2.9952 C   0  0  0  0  0  0  0  0  0  0  0  0
   -2.7041   -3.0862   -0.9548 O   0  0  0  0  0  0  0  0  0  0  0  0
   -5.9536   -0.6984   -1.1425 C   0  0  0  0  0  0  0  0  0  0  0  0
   -5.1447    0.1587   -2.1603 C   0  0  0  0  0  0  0  0  0  0  0  0
   -4.1909    1.0018   -1.3781 C   0  0  0  0  0  0  0  0  0  0  0  0
   -3.4730    1.9308   -2.2195 N   0  0  0  0  0  0  0  0  0  0  0  0
   -4.3102    2.7391   -3.1082 C   0  0  0  0  0  0  0  0  0  0  0  0
   -5.3665    1.8736   -3.8120 C   0  0  0  0  0  0  0  0  0  0  0  0
   -6.0759    1.0037   -2.8683 O   0  0  0  0  0  0  0  0  0  0  0  0
   -6.6791   -3.4797    0.2716 O   0  0  0  0  0  0  0  0  0  0  0  0
   -6.1269   -2.9705    2.9848 C   0  0  0  0  0  0  0  0  0  0  0  0
   -6.6934   -1.9816    4.0135 C   0  0  0  0  0  0  0  0  0  0  0  0
   -5.7305   -0.8368    4.3189 C   0  0  0  0  0  0  0  0  0  0  0  0
   -4.6357    1.8093    4.0837 O   0  0  0  0  0  0  0  0  0  0  0  0
   -0.3418    2.3540   -0.3317 C   0  0  0  0  0  0  0  0  0  0  0  0
    0.3996    3.1713   -1.1702 C   0  0  0  0  0  0  0  0  0  0  0  0
   -0.1580    3.5782   -2.4275 C   0  0  0  0  0  0  0  0  0  0  0  0
   -1.4379    3.1341   -2.7406 C   0  0  0  0  0  0  0  0  0  0  0  0
   -2.1824    2.3366   -1.8743 C   0  0  0  0  0  0  0  0  0  0  0  0
   -1.6269    1.9226   -0.6534 C   0  0  0  0  0  0  0  0  0  0  0  0
    0.3458   -3.1092   -5.1221 F   0  0  0  0  0  0  0  0  0  0  0  0
  1  2  1  0  0  0  0
  2  3  1  0  0  0  0
  2  5  1  0  0  0  0
  3  4  1  0  0  0  0
  5  6  4  0  0  0  0
  5 10  4  0  0  0  0
  6  7  4  0  0  0  0
  7  8  4  0  0  0  0
  8  9  4  0  0  0  0
  9 10  4  0  0  0  0
 10 11  1  0  0  0  0
 11 12  4  0  0  0  0
 11 15  4  0  0  0  0
 12 13  1  0  0  0  0
 12 68  4  0  0  0  0
 13 14  1  0  0  0  0
 15 16  1  0  0  0  0
 15 67  4  0  0  0  0
 16 17  1  0  0  0  0
 17 18  1  0  0  0  0
 17 19  1  0  0  0  0
 17 20  1  0  0  0  0
 20 21  1  0  0  0  0
 21 22  1  0  0  0  0
 22 23  1  0  0  0  0
 22 66  2  0  0  0  0
 23 24  1  0  0  0  0
 23 65  1  0  0  0  0
 24 25  1  0  0  0  0
 25 26  1  0  0  0  0
 25 63  1  0  0  0  0
 26 27  1  0  0  0  0
 26 62  2  0  0  0  0
 27 28  1  0  0  0  0
 27 55  1  0  0  0  0
 28 29  1  0  0  0  0
 29 30  1  0  0  0  0
 29 54  2  0  0  0  0
 30 31  1  0  0  0  0
 30 34  1  0  0  0  0
 31 32  1  0  0  0  0
 31 33  1  0  0  0  0
 34 35  1  0  0  0  0
 34 53  1  0  0  0  0
 35 36  1  0  0  0  0
 35 52  2  0  0  0  0
 36 37  1  0  0  0  0
 36 51  1  0  0  0  0
 36 73  1  0  0  0  0
 37 38  1  0  0  0  0
 38 39  1  0  0  0  0
 39 40  1  0  0  0  0
 39 50  1  0  0  0  0
 40 41  1  0  0  0  0
 40 49  2  0  0  0  0
 41 42  1  0  0  0  0
 42 43  1  0  0  0  0
 43 44  1  0  0  0  0
 43 47  1  0  0  0  0
 43 48  1  0  0  0  0
 44 45  1  0  0  0  0
 44 46  1  0  0  0  0
 50 51  1  0  0  0  0
 55 56  1  0  0  0  0
 56 57  1  0  0  0  0
 56 61  1  0  0  0  0
 57 58  1  0  0  0  0
 58 59  1  0  0  0  0
 58 71  1  0  0  0  0
 59 60  1  0  0  0  0
 60 61  1  0  0  0  0
 63 64  1  0  0  0  0
 64 65  1  0  0  0  0
 67 68  4  0  0  0  0
 67 72  4  0  0  0  0
 68 69  4  0  0  0  0
 69 70  4  0  0  0  0
 70 71  4  0  0  0  0
 71 72  4  0  0  0  0
M  END
$$$$
