mol_ETKDG0_306
  PyMOL3.1          3D                             0

 73 79  0  0  0  0  0  0  0  0999 V2000
    1.9051   -3.1500    3.1181 C   0  0  0  0  0  0  0  0  0  0  0  0
    2.9280   -2.6657    2.1672 C   0  0  0  0  0  0  0  0  0  0  0  0
    3.8062   -3.6839    1.6806 O   0  0  0  0  0  0  0  0  0  0  0  0
    3.2678   -4.5669    0.7259 C   0  0  0  0  0  0  0  0  0  0  0  0
    3.7670   -1.5983    2.7440 C   0  0  0  0  0  0  0  0  0  0  0  0
    4.5446   -1.9271    3.7626 N   0  0  0  0  0  0  0  0  0  0  0  0
    5.3677   -1.0227    4.3425 C   0  0  0  0  0  0  0  0  0  0  0  0
    5.4079    0.3102    3.9216 C   0  0  0  0  0  0  0  0  0  0  0  0
    4.5823    0.6866    2.8514 C   0  0  0  0  0  0  0  0  0  0  0  0
    3.7391   -0.2846    2.2711 C   0  0  0  0  0  0  0  0  0  0  0  0
    2.8826    0.1337    1.1768 C   0  0  0  0  0  0  0  0  0  0  0  0
    3.3399    0.3115   -0.0907 N   0  0  0  0  0  0  0  0  0  0  0  0
    4.7221    0.0272   -0.6112 C   0  0  0  0  0  0  0  0  0  0  0  0
    5.5105    1.2289   -0.8964 C   0  0  0  0  0  0  0  0  0  0  0  0
    1.4778    0.3803    1.2335 C   0  0  0  0  0  0  0  0  0  0  0  0
    0.4745    0.1439    2.3316 C   0  0  0  0  0  0  0  0  0  0  0  0
    0.2004    1.3309    3.3341 C   0  0  0  0  0  0  0  0  0  0  0  0
   -0.7263    0.8141    4.4297 C   0  0  0  0  0  0  0  0  0  0  0  0
    1.4375    1.7642    4.0441 C   0  0  0  0  0  0  0  0  0  0  0  0
   -0.4281    2.5143    2.6096 C   0  0  0  0  0  0  0  0  0  0  0  0
   -1.9225    2.4008    2.3664 O   0  0  0  0  0  0  0  0  0  0  0  0
   -2.8815    3.3897    2.7719 C   0  0  0  0  0  0  0  0  0  0  0  0
   -4.3493    3.2019    2.4445 C   0  0  0  0  0  0  0  0  0  0  0  0
   -4.6383    1.8682    2.0071 N   0  0  0  0  0  0  0  0  0  0  0  0
   -5.9706    1.5578    1.6996 N   0  0  0  0  0  0  0  0  0  0  0  0
   -6.3087    0.9811    0.5017 C   0  0  0  0  0  0  0  0  0  0  0  0
   -5.2200    0.6646   -0.4801 C   0  0  0  0  0  0  0  0  0  0  0  0
   -5.5054   -0.5404   -1.2385 N   0  0  0  0  0  0  0  0  0  0  0  0
   -4.8919   -1.7171   -1.0130 C   0  0  0  0  0  0  0  0  0  0  0  0
   -5.1838   -2.8293   -1.9710 C   0  0  0  0  0  0  0  0  0  0  0  0
   -6.2352   -3.8593   -1.4681 C   0  0  0  0  0  0  0  0  0  0  0  0
   -6.8070   -4.7111   -2.5464 C   0  0  0  0  0  0  0  0  0  0  0  0
   -7.2257   -3.3403   -0.5000 C   0  0  0  0  0  0  0  0  0  0  0  0
   -3.9021   -3.4836   -2.2825 N   0  0  0  0  0  0  0  0  0  0  0  0
   -3.1065   -2.9400   -3.2724 C   0  0  0  0  0  0  0  0  0  0  0  0
   -1.7366   -3.4446   -3.6757 C   0  0  0  0  0  0  0  0  0  0  0  0
   -1.2500   -2.8704   -5.0257 C   0  0  0  0  0  0  0  0  0  0  0  0
    0.1739   -3.2493   -5.3121 C   0  0  0  0  0  0  0  0  0  0  0  0
    1.0439   -2.9674   -4.1481 N   0  0  0  0  0  0  0  0  0  0  0  0
    2.2227   -2.2639   -4.1975 C   0  0  0  0  0  0  0  0  0  0  0  0
    2.6776   -1.5633   -5.3081 C   0  0  0  0  0  0  0  0  0  0  0  0
    3.2481   -0.9785   -6.1516 C   0  0  0  0  0  0  0  0  0  0  0  0
    3.8253   -0.3077   -7.2482 C   0  0  0  0  0  0  0  0  0  0  0  0
    5.2660   -0.3958   -7.1869 N   0  0  0  0  0  0  0  0  0  0  0  0
    5.9090   -1.5862   -7.5885 C   0  0  0  0  0  0  0  0  0  0  0  0
    6.0088    0.4836   -6.3634 C   0  0  0  0  0  0  0  0  0  0  0  0
    3.3947    1.1432   -7.2634 C   0  0  0  0  0  0  0  0  0  0  0  0
    3.3132   -0.9192   -8.5426 C   0  0  0  0  0  0  0  0  0  0  0  0
    2.9346   -2.2136   -3.1716 O   0  0  0  0  0  0  0  0  0  0  0  0
    0.5995   -3.4584   -2.8866 C   0  0  0  0  0  0  0  0  0  0  0  0
   -0.7768   -2.9916   -2.5876 C   0  0  0  0  0  0  0  0  0  0  0  0
   -3.5439   -1.9325   -3.8582 O   0  0  0  0  0  0  0  0  0  0  0  0
   -3.4579   -4.6260   -1.4543 C   0  0  0  0  0  0  0  0  0  0  0  0
   -4.0590   -1.8064   -0.1276 O   0  0  0  0  0  0  0  0  0  0  0  0
   -5.0142    1.8729   -1.4797 C   0  0  0  0  0  0  0  0  0  0  0  0
   -3.8311    1.6769   -2.4695 C   0  0  0  0  0  0  0  0  0  0  0  0
   -2.5659    1.9138   -1.7099 C   0  0  0  0  0  0  0  0  0  0  0  0
   -1.3950    1.8455   -2.5538 N   0  0  0  0  0  0  0  0  0  0  0  0
   -1.4652    2.6726   -3.7739 C   0  0  0  0  0  0  0  0  0  0  0  0
   -2.8277    2.5199   -4.4764 C   0  0  0  0  0  0  0  0  0  0  0  0
   -3.9494    2.6533   -3.5309 O   0  0  0  0  0  0  0  0  0  0  0  0
   -7.4901    0.7452    0.1993 O   0  0  0  0  0  0  0  0  0  0  0  0
   -6.9489    1.8203    2.7512 C   0  0  0  0  0  0  0  0  0  0  0  0
   -6.7482    3.2443    3.3038 C   0  0  0  0  0  0  0  0  0  0  0  0
   -5.2853    3.5449    3.6374 C   0  0  0  0  0  0  0  0  0  0  0  0
   -2.5793    4.4349    3.3864 O   0  0  0  0  0  0  0  0  0  0  0  0
    1.1580    0.7906   -0.0773 C   0  0  0  0  0  0  0  0  0  0  0  0
    2.3138    0.7208   -0.8526 C   0  0  0  0  0  0  0  0  0  0  0  0
    2.2400    1.0370   -2.2562 C   0  0  0  0  0  0  0  0  0  0  0  0
    0.9897    1.3948   -2.7831 C   0  0  0  0  0  0  0  0  0  0  0  0
   -0.1615    1.4701   -1.9890 C   0  0  0  0  0  0  0  0  0  0  0  0
   -0.0831    1.1521   -0.6128 C   0  0  0  0  0  0  0  0  0  0  0  0
   -1.7250   -4.8270   -3.8017 F   0  0  0  0  0  0  0  0  0  0  0  0
  1  2  1  0  0  0  0
  2  3  1  0  0  0  0
  2  5  1  0  0  0  0
  3  4  1  0  0  0  0
  5  6  4  0  0  0  0
  5 10  4  0  0  0  0
  6  7  4  0  0  0  0
  7  8  4  0  0  0  0
  8  9  4  0  0  0  0
  9 10  4  0  0  0  0
 10 11  1  0  0  0  0
 11 12  4  0  0  0  0
 11 15  4  0  0  0  0
 12 13  1  0  0  0  0
 12 68  4  0  0  0  0
 13 14  1  0  0  0  0
 15 16  1  0  0  0  0
 15 67  4  0  0  0  0
 16 17  1  0  0  0  0
 17 18  1  0  0  0  0
 17 19  1  0  0  0  0
 17 20  1  0  0  0  0
 20 21  1  0  0  0  0
 21 22  1  0  0  0  0
 22 23  1  0  0  0  0
 22 66  2  0  0  0  0
 23 24  1  0  0  0  0
 23 65  1  0  0  0  0
 24 25  1  0  0  0  0
 25 26  1  0  0  0  0
 25 63  1  0  0  0  0
 26 27  1  0  0  0  0
 26 62  2  0  0  0  0
 27 28  1  0  0  0  0
 27 55  1  0  0  0  0
 28 29  1  0  0  0  0
 29 30  1  0  0  0  0
 29 54  2  0  0  0  0
 30 31  1  0  0  0  0
 30 34  1  0  0  0  0
 31 32  1  0  0  0  0
 31 33  1  0  0  0  0
 34 35  1  0  0  0  0
 34 53  1  0  0  0  0
 35 36  1  0  0  0  0
 35 52  2  0  0  0  0
 36 37  1  0  0  0  0
 36 51  1  0  0  0  0
 36 73  1  0  0  0  0
 37 38  1  0  0  0  0
 38 39  1  0  0  0  0
 39 40  1  0  0  0  0
 39 50  1  0  0  0  0
 40 41  1  0  0  0  0
 40 49  2  0  0  0  0
 41 42  1  0  0  0  0
 42 43  1  0  0  0  0
 43 44  1  0  0  0  0
 43 47  1  0  0  0  0
 43 48  1  0  0  0  0
 44 45  1  0  0  0  0
 44 46  1  0  0  0  0
 50 51  1  0  0  0  0
 55 56  1  0  0  0  0
 56 57  1  0  0  0  0
 56 61  1  0  0  0  0
 57 58  1  0  0  0  0
 58 59  1  0  0  0  0
 58 71  1  0  0  0  0
 59 60  1  0  0  0  0
 60 61  1  0  0  0  0
 63 64  1  0  0  0  0
 64 65  1  0  0  0  0
 67 68  4  0  0  0  0
 67 72  4  0  0  0  0
 68 69  4  0  0  0  0
 69 70  4  0  0  0  0
 70 71  4  0  0  0  0
 71 72  4  0  0  0  0
M  END
$$$$
