mol_ETKDG3_189
  PyMOL3.1          3D                             0

 73 79  0  0  0  0  0  0  0  0999 V2000
   -2.8241    3.3685   -0.3761 C   0  0  0  0  0  0  0  0  0  0  0  0
   -2.6226    1.9850    0.1166 C   0  0  0  0  0  0  0  0  0  0  0  0
   -1.8915    1.8688    1.3132 O   0  0  0  0  0  0  0  0  0  0  0  0
   -0.5084    2.1416    1.2514 C   0  0  0  0  0  0  0  0  0  0  0  0
   -3.8993    1.2664    0.3139 C   0  0  0  0  0  0  0  0  0  0  0  0
   -4.6590    1.6055    1.3494 N   0  0  0  0  0  0  0  0  0  0  0  0
   -5.8693    1.0336    1.5474 C   0  0  0  0  0  0  0  0  0  0  0  0
   -6.3818    0.0696    0.6676 C   0  0  0  0  0  0  0  0  0  0  0  0
   -5.5985   -0.2941   -0.4422 C   0  0  0  0  0  0  0  0  0  0  0  0
   -4.3288    0.2958   -0.5889 C   0  0  0  0  0  0  0  0  0  0  0  0
   -3.4930   -0.1303   -1.6906 C   0  0  0  0  0  0  0  0  0  0  0  0
   -3.5675    0.3906   -2.9460 N   0  0  0  0  0  0  0  0  0  0  0  0
   -4.4679    1.4957   -3.4237 C   0  0  0  0  0  0  0  0  0  0  0  0
   -5.5666    1.0150   -4.2649 C   0  0  0  0  0  0  0  0  0  0  0  0
   -2.4260   -1.0704   -1.6118 C   0  0  0  0  0  0  0  0  0  0  0  0
   -1.8515   -1.8061   -0.4268 C   0  0  0  0  0  0  0  0  0  0  0  0
   -2.4609   -3.2450   -0.1134 C   0  0  0  0  0  0  0  0  0  0  0  0
   -3.9401   -3.2188    0.1837 C   0  0  0  0  0  0  0  0  0  0  0  0
   -1.8213   -3.7295    1.1652 C   0  0  0  0  0  0  0  0  0  0  0  0
   -2.2080   -4.2192   -1.2513 C   0  0  0  0  0  0  0  0  0  0  0  0
   -0.8544   -4.8858   -1.2237 O   0  0  0  0  0  0  0  0  0  0  0  0
   -0.6447   -6.2987   -1.3144 C   0  0  0  0  0  0  0  0  0  0  0  0
    0.7779   -6.8405   -1.3097 C   0  0  0  0  0  0  0  0  0  0  0  0
    1.7060   -5.8148   -0.9306 N   0  0  0  0  0  0  0  0  0  0  0  0
    3.0488   -6.1709   -0.8579 N   0  0  0  0  0  0  0  0  0  0  0  0
    3.9999   -5.4757   -1.5641 C   0  0  0  0  0  0  0  0  0  0  0  0
    3.5665   -4.2878   -2.3798 C   0  0  0  0  0  0  0  0  0  0  0  0
    4.5719   -3.2415   -2.3850 N   0  0  0  0  0  0  0  0  0  0  0  0
    4.5228   -2.1609   -1.5853 C   0  0  0  0  0  0  0  0  0  0  0  0
    5.5550   -1.1001   -1.8304 C   0  0  0  0  0  0  0  0  0  0  0  0
    6.7453   -1.1291   -0.8030 C   0  0  0  0  0  0  0  0  0  0  0  0
    7.8103   -0.1247   -1.1261 C   0  0  0  0  0  0  0  0  0  0  0  0
    7.3188   -2.5117   -0.6364 C   0  0  0  0  0  0  0  0  0  0  0  0
    4.8337    0.1815   -1.8271 N   0  0  0  0  0  0  0  0  0  0  0  0
    4.2108    0.5843   -2.9845 C   0  0  0  0  0  0  0  0  0  0  0  0
    3.3715    1.8364   -3.1176 C   0  0  0  0  0  0  0  0  0  0  0  0
    2.0409    1.5613   -2.4491 C   0  0  0  0  0  0  0  0  0  0  0  0
    1.1370    2.7621   -2.5210 C   0  0  0  0  0  0  0  0  0  0  0  0
    0.9751    3.1234   -3.9407 N   0  0  0  0  0  0  0  0  0  0  0  0
   -0.2649    3.1621   -4.5264 C   0  0  0  0  0  0  0  0  0  0  0  0
   -0.4157    3.1184   -5.9102 C   0  0  0  0  0  0  0  0  0  0  0  0
   -0.6314    3.1256   -7.0591 C   0  0  0  0  0  0  0  0  0  0  0  0
   -0.6779    3.0971   -8.4644 C   0  0  0  0  0  0  0  0  0  0  0  0
    0.5353    3.6182   -8.9978 N   0  0  0  0  0  0  0  0  0  0  0  0
    0.8394    4.9753   -8.7736 C   0  0  0  0  0  0  0  0  0  0  0  0
    1.3043    2.9263   -9.9490 C   0  0  0  0  0  0  0  0  0  0  0  0
   -1.8340    3.9386   -8.9842 C   0  0  0  0  0  0  0  0  0  0  0  0
   -0.9074    1.6829   -8.9420 C   0  0  0  0  0  0  0  0  0  0  0  0
   -1.2860    3.1906   -3.8278 O   0  0  0  0  0  0  0  0  0  0  0  0
    2.1869    3.3801   -4.6753 C   0  0  0  0  0  0  0  0  0  0  0  0
    3.1182    2.2192   -4.5894 C   0  0  0  0  0  0  0  0  0  0  0  0
    4.3328   -0.1491   -3.9882 O   0  0  0  0  0  0  0  0  0  0  0  0
    4.7003    0.9309   -0.5615 C   0  0  0  0  0  0  0  0  0  0  0  0
    3.6042   -2.0244   -0.8001 O   0  0  0  0  0  0  0  0  0  0  0  0
    3.2700   -4.7177   -3.8810 C   0  0  0  0  0  0  0  0  0  0  0  0
    2.7141   -3.5654   -4.7837 C   0  0  0  0  0  0  0  0  0  0  0  0
    1.2740   -3.3796   -4.4390 C   0  0  0  0  0  0  0  0  0  0  0  0
    0.6154   -2.4077   -5.2850 N   0  0  0  0  0  0  0  0  0  0  0  0
    0.7900   -2.6238   -6.7301 C   0  0  0  0  0  0  0  0  0  0  0  0
    2.2625   -2.9359   -7.0658 C   0  0  0  0  0  0  0  0  0  0  0  0
    2.8220   -3.9770   -6.1740 O   0  0  0  0  0  0  0  0  0  0  0  0
    5.1946   -5.8224   -1.5680 O   0  0  0  0  0  0  0  0  0  0  0  0
    3.3686   -7.2696    0.0570 C   0  0  0  0  0  0  0  0  0  0  0  0
    2.4332   -8.4649   -0.2454 C   0  0  0  0  0  0  0  0  0  0  0  0
    0.9587   -8.0432   -0.3328 C   0  0  0  0  0  0  0  0  0  0  0  0
   -1.5639   -7.1324   -1.4054 O   0  0  0  0  0  0  0  0  0  0  0  0
   -1.9141   -1.1116   -2.9267 C   0  0  0  0  0  0  0  0  0  0  0  0
   -2.6345   -0.2088   -3.7066 C   0  0  0  0  0  0  0  0  0  0  0  0
   -2.2696   -0.0330   -5.0880 C   0  0  0  0  0  0  0  0  0  0  0  0
   -1.1816   -0.7729   -5.5741 C   0  0  0  0  0  0  0  0  0  0  0  0
   -0.4721   -1.6743   -4.7710 C   0  0  0  0  0  0  0  0  0  0  0  0
   -0.8359   -1.8444   -3.4212 C   0  0  0  0  0  0  0  0  0  0  0  0
    4.0245    2.9197   -2.5549 F   0  0  0  0  0  0  0  0  0  0  0  0
  1  2  1  0  0  0  0
  2  3  1  0  0  0  0
  2  5  1  0  0  0  0
  3  4  1  0  0  0  0
  5  6  4  0  0  0  0
  5 10  4  0  0  0  0
  6  7  4  0  0  0  0
  7  8  4  0  0  0  0
  8  9  4  0  0  0  0
  9 10  4  0  0  0  0
 10 11  1  0  0  0  0
 11 12  4  0  0  0  0
 11 15  4  0  0  0  0
 12 13  1  0  0  0  0
 12 68  4  0  0  0  0
 13 14  1  0  0  0  0
 15 16  1  0  0  0  0
 15 67  4  0  0  0  0
 16 17  1  0  0  0  0
 17 18  1  0  0  0  0
 17 19  1  0  0  0  0
 17 20  1  0  0  0  0
 20 21  1  0  0  0  0
 21 22  1  0  0  0  0
 22 23  1  0  0  0  0
 22 66  2  0  0  0  0
 23 24  1  0  0  0  0
 23 65  1  0  0  0  0
 24 25  1  0  0  0  0
 25 26  1  0  0  0  0
 25 63  1  0  0  0  0
 26 27  1  0  0  0  0
 26 62  2  0  0  0  0
 27 28  1  0  0  0  0
 27 55  1  0  0  0  0
 28 29  1  0  0  0  0
 29 30  1  0  0  0  0
 29 54  2  0  0  0  0
 30 31  1  0  0  0  0
 30 34  1  0  0  0  0
 31 32  1  0  0  0  0
 31 33  1  0  0  0  0
 34 35  1  0  0  0  0
 34 53  1  0  0  0  0
 35 36  1  0  0  0  0
 35 52  2  0  0  0  0
 36 37  1  0  0  0  0
 36 51  1  0  0  0  0
 36 73  1  0  0  0  0
 37 38  1  0  0  0  0
 38 39  1  0  0  0  0
 39 40  1  0  0  0  0
 39 50  1  0  0  0  0
 40 41  1  0  0  0  0
 40 49  2  0  0  0  0
 41 42  1  0  0  0  0
 42 43  1  0  0  0  0
 43 44  1  0  0  0  0
 43 47  1  0  0  0  0
 43 48  1  0  0  0  0
 44 45  1  0  0  0  0
 44 46  1  0  0  0  0
 50 51  1  0  0  0  0
 55 56  1  0  0  0  0
 56 57  1  0  0  0  0
 56 61  1  0  0  0  0
 57 58  1  0  0  0  0
 58 59  1  0  0  0  0
 58 71  1  0  0  0  0
 59 60  1  0  0  0  0
 60 61  1  0  0  0  0
 63 64  1  0  0  0  0
 64 65  1  0  0  0  0
 67 68  4  0  0  0  0
 67 72  4  0  0  0  0
 68 69  4  0  0  0  0
 69 70  4  0  0  0  0
 70 71  4  0  0  0  0
 71 72  4  0  0  0  0
M  END
$$$$
