mol_ETKDG4_230
  PyMOL3.1          3D                             0

 73 79  0  0  0  0  0  0  0  0999 V2000
    2.7734    4.6244   -3.0538 C   0  0  0  0  0  0  0  0  0  0  0  0
    1.6886    3.6287   -2.9811 C   0  0  0  0  0  0  0  0  0  0  0  0
    1.3841    2.9693   -4.1881 O   0  0  0  0  0  0  0  0  0  0  0  0
    2.3307    2.0295   -4.6482 C   0  0  0  0  0  0  0  0  0  0  0  0
    0.4283    4.2060   -2.4801 C   0  0  0  0  0  0  0  0  0  0  0  0
   -0.2601    4.9890   -3.2873 N   0  0  0  0  0  0  0  0  0  0  0  0
   -1.3863    5.6041   -2.8709 C   0  0  0  0  0  0  0  0  0  0  0  0
   -1.8686    5.4452   -1.5667 C   0  0  0  0  0  0  0  0  0  0  0  0
   -1.1463    4.6298   -0.6965 C   0  0  0  0  0  0  0  0  0  0  0  0
    0.0008    3.9873   -1.1797 C   0  0  0  0  0  0  0  0  0  0  0  0
    0.7093    3.1136   -0.2929 C   0  0  0  0  0  0  0  0  0  0  0  0
    1.5546    3.5600    0.6654 N   0  0  0  0  0  0  0  0  0  0  0  0
    1.9565    4.9785    0.9602 C   0  0  0  0  0  0  0  0  0  0  0  0
    1.2535    5.5498    2.1077 C   0  0  0  0  0  0  0  0  0  0  0  0
    0.6886    1.6969   -0.3338 C   0  0  0  0  0  0  0  0  0  0  0  0
   -0.0054    0.7327   -1.2643 C   0  0  0  0  0  0  0  0  0  0  0  0
   -1.5204    0.4117   -0.9093 C   0  0  0  0  0  0  0  0  0  0  0  0
   -2.0745   -0.4898   -1.9981 C   0  0  0  0  0  0  0  0  0  0  0  0
   -2.3802    1.6084   -0.9564 C   0  0  0  0  0  0  0  0  0  0  0  0
   -1.6728   -0.2443    0.4192 C   0  0  0  0  0  0  0  0  0  0  0  0
   -1.4258   -1.7138    0.4742 O   0  0  0  0  0  0  0  0  0  0  0  0
   -2.0655   -2.6042    1.3780 C   0  0  0  0  0  0  0  0  0  0  0  0
   -1.6861   -4.0660    1.3554 C   0  0  0  0  0  0  0  0  0  0  0  0
   -0.8020   -4.3447    0.2632 N   0  0  0  0  0  0  0  0  0  0  0  0
   -0.3934   -5.6640    0.1076 N   0  0  0  0  0  0  0  0  0  0  0  0
    0.9289   -5.9995    0.0656 C   0  0  0  0  0  0  0  0  0  0  0  0
    1.9466   -4.9152    0.2123 C   0  0  0  0  0  0  0  0  0  0  0  0
    3.0752   -5.1110   -0.6684 N   0  0  0  0  0  0  0  0  0  0  0  0
    3.2154   -4.4468   -1.8252 C   0  0  0  0  0  0  0  0  0  0  0  0
    4.5143   -4.6269   -2.5262 C   0  0  0  0  0  0  0  0  0  0  0  0
    4.4210   -5.5192   -3.8013 C   0  0  0  0  0  0  0  0  0  0  0  0
    5.7584   -5.8584   -4.3651 C   0  0  0  0  0  0  0  0  0  0  0  0
    3.5582   -6.7258   -3.6000 C   0  0  0  0  0  0  0  0  0  0  0  0
    5.0265   -3.2828   -2.7898 N   0  0  0  0  0  0  0  0  0  0  0  0
    5.6859   -2.6354   -1.7802 C   0  0  0  0  0  0  0  0  0  0  0  0
    6.2016   -1.2229   -1.8406 C   0  0  0  0  0  0  0  0  0  0  0  0
    7.0000   -0.8452   -0.5846 C   0  0  0  0  0  0  0  0  0  0  0  0
    7.3835    0.5882   -0.5841 C   0  0  0  0  0  0  0  0  0  0  0  0
    6.2207    1.4472   -0.8667 N   0  0  0  0  0  0  0  0  0  0  0  0
    5.8651    2.5267   -0.1246 C   0  0  0  0  0  0  0  0  0  0  0  0
    6.4143    2.7897    1.1056 C   0  0  0  0  0  0  0  0  0  0  0  0
    6.8381    3.1536    2.1023 C   0  0  0  0  0  0  0  0  0  0  0  0
    7.4771    3.4736    3.3088 C   0  0  0  0  0  0  0  0  0  0  0  0
    8.5050    4.4126    3.0129 N   0  0  0  0  0  0  0  0  0  0  0  0
    9.8293    4.0048    2.8349 C   0  0  0  0  0  0  0  0  0  0  0  0
    8.1497    5.7140    2.5729 C   0  0  0  0  0  0  0  0  0  0  0  0
    8.0038    2.1958    3.9315 C   0  0  0  0  0  0  0  0  0  0  0  0
    6.5206    4.0778    4.3130 C   0  0  0  0  0  0  0  0  0  0  0  0
    4.9789    3.2920   -0.5437 O   0  0  0  0  0  0  0  0  0  0  0  0
    5.4194    1.1002   -1.9909 C   0  0  0  0  0  0  0  0  0  0  0  0
    4.9938   -0.3123   -1.9093 C   0  0  0  0  0  0  0  0  0  0  0  0
    5.8498   -3.2632   -0.7186 O   0  0  0  0  0  0  0  0  0  0  0  0
    4.7121   -2.6390   -4.0782 C   0  0  0  0  0  0  0  0  0  0  0  0
    2.3705   -3.6521   -2.1924 O   0  0  0  0  0  0  0  0  0  0  0  0
    2.4590   -4.8479    1.7032 C   0  0  0  0  0  0  0  0  0  0  0  0
    3.3978   -3.6503    2.0001 C   0  0  0  0  0  0  0  0  0  0  0  0
    2.5484   -2.4477    2.1502 C   0  0  0  0  0  0  0  0  0  0  0  0
    3.3151   -1.2915    2.5242 N   0  0  0  0  0  0  0  0  0  0  0  0
    4.1785   -1.4735    3.6958 C   0  0  0  0  0  0  0  0  0  0  0  0
    4.9579   -2.7876    3.5967 C   0  0  0  0  0  0  0  0  0  0  0  0
    4.0836   -3.9106    3.2525 O   0  0  0  0  0  0  0  0  0  0  0  0
    1.3028   -7.1739   -0.0549 O   0  0  0  0  0  0  0  0  0  0  0  0
   -1.4667   -6.6399   -0.0714 C   0  0  0  0  0  0  0  0  0  0  0  0
   -2.4992   -6.4569    1.0565 C   0  0  0  0  0  0  0  0  0  0  0  0
   -2.9234   -4.9941    1.2288 C   0  0  0  0  0  0  0  0  0  0  0  0
   -2.9458   -2.2773    2.2029 O   0  0  0  0  0  0  0  0  0  0  0  0
    1.5603    1.3323    0.6983 C   0  0  0  0  0  0  0  0  0  0  0  0
    2.0583    2.4952    1.2854 C   0  0  0  0  0  0  0  0  0  0  0  0
    2.9835    2.3984    2.3619 C   0  0  0  0  0  0  0  0  0  0  0  0
    3.3813    1.1186    2.7374 C   0  0  0  0  0  0  0  0  0  0  0  0
    2.8858   -0.0316    2.1245 C   0  0  0  0  0  0  0  0  0  0  0  0
    1.9547    0.0707    1.0846 C   0  0  0  0  0  0  0  0  0  0  0  0
    7.0165   -1.0570   -2.9448 F   0  0  0  0  0  0  0  0  0  0  0  0
  1  2  1  0  0  0  0
  2  3  1  0  0  0  0
  2  5  1  0  0  0  0
  3  4  1  0  0  0  0
  5  6  4  0  0  0  0
  5 10  4  0  0  0  0
  6  7  4  0  0  0  0
  7  8  4  0  0  0  0
  8  9  4  0  0  0  0
  9 10  4  0  0  0  0
 10 11  1  0  0  0  0
 11 12  4  0  0  0  0
 11 15  4  0  0  0  0
 12 13  1  0  0  0  0
 12 68  4  0  0  0  0
 13 14  1  0  0  0  0
 15 16  1  0  0  0  0
 15 67  4  0  0  0  0
 16 17  1  0  0  0  0
 17 18  1  0  0  0  0
 17 19  1  0  0  0  0
 17 20  1  0  0  0  0
 20 21  1  0  0  0  0
 21 22  1  0  0  0  0
 22 23  1  0  0  0  0
 22 66  2  0  0  0  0
 23 24  1  0  0  0  0
 23 65  1  0  0  0  0
 24 25  1  0  0  0  0
 25 26  1  0  0  0  0
 25 63  1  0  0  0  0
 26 27  1  0  0  0  0
 26 62  2  0  0  0  0
 27 28  1  0  0  0  0
 27 55  1  0  0  0  0
 28 29  1  0  0  0  0
 29 30  1  0  0  0  0
 29 54  2  0  0  0  0
 30 31  1  0  0  0  0
 30 34  1  0  0  0  0
 31 32  1  0  0  0  0
 31 33  1  0  0  0  0
 34 35  1  0  0  0  0
 34 53  1  0  0  0  0
 35 36  1  0  0  0  0
 35 52  2  0  0  0  0
 36 37  1  0  0  0  0
 36 51  1  0  0  0  0
 36 73  1  0  0  0  0
 37 38  1  0  0  0  0
 38 39  1  0  0  0  0
 39 40  1  0  0  0  0
 39 50  1  0  0  0  0
 40 41  1  0  0  0  0
 40 49  2  0  0  0  0
 41 42  1  0  0  0  0
 42 43  1  0  0  0  0
 43 44  1  0  0  0  0
 43 47  1  0  0  0  0
 43 48  1  0  0  0  0
 44 45  1  0  0  0  0
 44 46  1  0  0  0  0
 50 51  1  0  0  0  0
 55 56  1  0  0  0  0
 56 57  1  0  0  0  0
 56 61  1  0  0  0  0
 57 58  1  0  0  0  0
 58 59  1  0  0  0  0
 58 71  1  0  0  0  0
 59 60  1  0  0  0  0
 60 61  1  0  0  0  0
 63 64  1  0  0  0  0
 64 65  1  0  0  0  0
 67 68  4  0  0  0  0
 67 72  4  0  0  0  0
 68 69  4  0  0  0  0
 69 70  4  0  0  0  0
 70 71  4  0  0  0  0
 71 72  4  0  0  0  0
M  END
$$$$
