mol_ETKDG5_258
  PyMOL3.1          3D                             0

 73 79  0  0  0  0  0  0  0  0999 V2000
   -2.5383    4.0767   -2.7096 C   0  0  0  0  0  0  0  0  0  0  0  0
   -1.9880    4.1478   -1.3352 C   0  0  0  0  0  0  0  0  0  0  0  0
   -1.1700    5.2566   -1.0571 O   0  0  0  0  0  0  0  0  0  0  0  0
    0.0879    5.3313   -1.6925 C   0  0  0  0  0  0  0  0  0  0  0  0
   -3.0464    4.1126   -0.2995 C   0  0  0  0  0  0  0  0  0  0  0  0
   -3.8336    5.1706   -0.1687 N   0  0  0  0  0  0  0  0  0  0  0  0
   -4.8556    5.1842    0.7206 C   0  0  0  0  0  0  0  0  0  0  0  0
   -5.1335    4.0794    1.5317 C   0  0  0  0  0  0  0  0  0  0  0  0
   -4.3242    2.9444    1.3974 C   0  0  0  0  0  0  0  0  0  0  0  0
   -3.2510    2.9881    0.4886 C   0  0  0  0  0  0  0  0  0  0  0  0
   -2.3965    1.8346    0.4163 C   0  0  0  0  0  0  0  0  0  0  0  0
   -2.6801    0.7418   -0.3348 N   0  0  0  0  0  0  0  0  0  0  0  0
   -3.8531    0.5397   -1.2576 C   0  0  0  0  0  0  0  0  0  0  0  0
   -4.8840   -0.3488   -0.7256 C   0  0  0  0  0  0  0  0  0  0  0  0
   -1.1286    1.6980    1.0517 C   0  0  0  0  0  0  0  0  0  0  0  0
   -0.2877    2.6679    1.8386 C   0  0  0  0  0  0  0  0  0  0  0  0
   -0.5677    2.8357    3.3897 C   0  0  0  0  0  0  0  0  0  0  0  0
   -1.8905    3.5236    3.6805 C   0  0  0  0  0  0  0  0  0  0  0  0
    0.4726    3.7883    3.9163 C   0  0  0  0  0  0  0  0  0  0  0  0
   -0.5155    1.5090    4.1563 C   0  0  0  0  0  0  0  0  0  0  0  0
    0.8733    1.1120    4.6070 O   0  0  0  0  0  0  0  0  0  0  0  0
    1.2131    0.6571    5.9113 C   0  0  0  0  0  0  0  0  0  0  0  0
    2.6656    0.3002    6.2092 C   0  0  0  0  0  0  0  0  0  0  0  0
    3.5319    0.9215    5.2521 N   0  0  0  0  0  0  0  0  0  0  0  0
    4.9151    0.7733    5.3988 N   0  0  0  0  0  0  0  0  0  0  0  0
    5.7038    0.3347    4.3589 C   0  0  0  0  0  0  0  0  0  0  0  0
    5.0520   -0.0218    3.0548 C   0  0  0  0  0  0  0  0  0  0  0  0
    5.8312    0.4326    1.9145 N   0  0  0  0  0  0  0  0  0  0  0  0
    5.4578    1.4631    1.1243 C   0  0  0  0  0  0  0  0  0  0  0  0
    6.2907    1.7040   -0.0986 C   0  0  0  0  0  0  0  0  0  0  0  0
    7.3648    2.8182    0.0405 C   0  0  0  0  0  0  0  0  0  0  0  0
    8.4368    2.7376   -0.9958 C   0  0  0  0  0  0  0  0  0  0  0  0
    7.8628    3.0485    1.4220 C   0  0  0  0  0  0  0  0  0  0  0  0
    5.3522    1.9908   -1.1944 N   0  0  0  0  0  0  0  0  0  0  0  0
    4.7576    0.9289   -1.8463 C   0  0  0  0  0  0  0  0  0  0  0  0
    3.7034    1.0679   -2.9245 C   0  0  0  0  0  0  0  0  0  0  0  0
    3.4057   -0.2423   -3.6736 C   0  0  0  0  0  0  0  0  0  0  0  0
    2.2646   -0.0809   -4.6345 C   0  0  0  0  0  0  0  0  0  0  0  0
    1.0964    0.5520   -3.9791 N   0  0  0  0  0  0  0  0  0  0  0  0
   -0.1906    0.0991   -4.0615 C   0  0  0  0  0  0  0  0  0  0  0  0
   -0.5281   -1.1202   -4.6084 C   0  0  0  0  0  0  0  0  0  0  0  0
   -0.9626   -2.0838   -5.1040 C   0  0  0  0  0  0  0  0  0  0  0  0
   -1.3285   -3.2796   -5.7302 C   0  0  0  0  0  0  0  0  0  0  0  0
   -2.0392   -3.0449   -6.9552 N   0  0  0  0  0  0  0  0  0  0  0  0
   -2.2028   -4.0604   -7.9134 C   0  0  0  0  0  0  0  0  0  0  0  0
   -2.9102   -1.9282   -7.0776 C   0  0  0  0  0  0  0  0  0  0  0  0
   -0.0565   -4.0761   -6.0036 C   0  0  0  0  0  0  0  0  0  0  0  0
   -2.2088   -4.1164   -4.7911 C   0  0  0  0  0  0  0  0  0  0  0  0
   -1.1166    0.7987   -3.5923 O   0  0  0  0  0  0  0  0  0  0  0  0
    1.3454    1.7233   -3.2047 C   0  0  0  0  0  0  0  0  0  0  0  0
    2.4272    1.5060   -2.2202 C   0  0  0  0  0  0  0  0  0  0  0  0
    5.0877   -0.2189   -1.4922 O   0  0  0  0  0  0  0  0  0  0  0  0
    4.9887    3.3976   -1.4754 C   0  0  0  0  0  0  0  0  0  0  0  0
    4.4195    2.0786    1.3518 O   0  0  0  0  0  0  0  0  0  0  0  0
    4.8509   -1.5872    2.9625 C   0  0  0  0  0  0  0  0  0  0  0  0
    4.1088   -2.0593    1.6794 C   0  0  0  0  0  0  0  0  0  0  0  0
    2.6656   -1.7497    1.8632 C   0  0  0  0  0  0  0  0  0  0  0  0
    1.8640   -2.2202    0.7610 N   0  0  0  0  0  0  0  0  0  0  0  0
    2.0538   -3.6434    0.4227 C   0  0  0  0  0  0  0  0  0  0  0  0
    3.5554   -3.9920    0.3574 C   0  0  0  0  0  0  0  0  0  0  0  0
    4.2836   -3.4948    1.5410 O   0  0  0  0  0  0  0  0  0  0  0  0
    6.9332    0.1792    4.4867 O   0  0  0  0  0  0  0  0  0  0  0  0
    5.4590    1.1771    6.6923 C   0  0  0  0  0  0  0  0  0  0  0  0
    4.6242    0.5453    7.8299 C   0  0  0  0  0  0  0  0  0  0  0  0
    3.1147    0.7451    7.6348 C   0  0  0  0  0  0  0  0  0  0  0  0
    0.3710    0.5257    6.8327 O   0  0  0  0  0  0  0  0  0  0  0  0
   -0.7114    0.4124    0.6717 C   0  0  0  0  0  0  0  0  0  0  0  0
   -1.6766   -0.1336   -0.1770 C   0  0  0  0  0  0  0  0  0  0  0  0
   -1.4628   -1.4387   -0.7447 C   0  0  0  0  0  0  0  0  0  0  0  0
   -0.2693   -2.0951   -0.4162 C   0  0  0  0  0  0  0  0  0  0  0  0
    0.6853   -1.5308    0.4449 C   0  0  0  0  0  0  0  0  0  0  0  0
    0.4666   -0.2526    0.9939 C   0  0  0  0  0  0  0  0  0  0  0  0
    4.0971    1.9987   -3.8765 F   0  0  0  0  0  0  0  0  0  0  0  0
  1  2  1  0  0  0  0
  2  3  1  0  0  0  0
  2  5  1  0  0  0  0
  3  4  1  0  0  0  0
  5  6  4  0  0  0  0
  5 10  4  0  0  0  0
  6  7  4  0  0  0  0
  7  8  4  0  0  0  0
  8  9  4  0  0  0  0
  9 10  4  0  0  0  0
 10 11  1  0  0  0  0
 11 12  4  0  0  0  0
 11 15  4  0  0  0  0
 12 13  1  0  0  0  0
 12 68  4  0  0  0  0
 13 14  1  0  0  0  0
 15 16  1  0  0  0  0
 15 67  4  0  0  0  0
 16 17  1  0  0  0  0
 17 18  1  0  0  0  0
 17 19  1  0  0  0  0
 17 20  1  0  0  0  0
 20 21  1  0  0  0  0
 21 22  1  0  0  0  0
 22 23  1  0  0  0  0
 22 66  2  0  0  0  0
 23 24  1  0  0  0  0
 23 65  1  0  0  0  0
 24 25  1  0  0  0  0
 25 26  1  0  0  0  0
 25 63  1  0  0  0  0
 26 27  1  0  0  0  0
 26 62  2  0  0  0  0
 27 28  1  0  0  0  0
 27 55  1  0  0  0  0
 28 29  1  0  0  0  0
 29 30  1  0  0  0  0
 29 54  2  0  0  0  0
 30 31  1  0  0  0  0
 30 34  1  0  0  0  0
 31 32  1  0  0  0  0
 31 33  1  0  0  0  0
 34 35  1  0  0  0  0
 34 53  1  0  0  0  0
 35 36  1  0  0  0  0
 35 52  2  0  0  0  0
 36 37  1  0  0  0  0
 36 51  1  0  0  0  0
 36 73  1  0  0  0  0
 37 38  1  0  0  0  0
 38 39  1  0  0  0  0
 39 40  1  0  0  0  0
 39 50  1  0  0  0  0
 40 41  1  0  0  0  0
 40 49  2  0  0  0  0
 41 42  1  0  0  0  0
 42 43  1  0  0  0  0
 43 44  1  0  0  0  0
 43 47  1  0  0  0  0
 43 48  1  0  0  0  0
 44 45  1  0  0  0  0
 44 46  1  0  0  0  0
 50 51  1  0  0  0  0
 55 56  1  0  0  0  0
 56 57  1  0  0  0  0
 56 61  1  0  0  0  0
 57 58  1  0  0  0  0
 58 59  1  0  0  0  0
 58 71  1  0  0  0  0
 59 60  1  0  0  0  0
 60 61  1  0  0  0  0
 63 64  1  0  0  0  0
 64 65  1  0  0  0  0
 67 68  4  0  0  0  0
 67 72  4  0  0  0  0
 68 69  4  0  0  0  0
 69 70  4  0  0  0  0
 70 71  4  0  0  0  0
 71 72  4  0  0  0  0
M  END
$$$$
