mol_ETKDG2_112
  PyMOL3.1          3D                             0

 73 79  0  0  0  0  0  0  0  0999 V2000
    3.8628   -0.5507    3.4200 C   0  0  0  0  0  0  0  0  0  0  0  0
    3.0586   -1.7439    3.0854 C   0  0  0  0  0  0  0  0  0  0  0  0
    3.5336   -2.5154    1.9905 O   0  0  0  0  0  0  0  0  0  0  0  0
    3.2767   -2.0229    0.6978 C   0  0  0  0  0  0  0  0  0  0  0  0
    2.8986   -2.6667    4.2251 C   0  0  0  0  0  0  0  0  0  0  0  0
    3.9071   -3.4799    4.5009 N   0  0  0  0  0  0  0  0  0  0  0  0
    3.8572   -4.3289    5.5460 C   0  0  0  0  0  0  0  0  0  0  0  0
    2.7406   -4.3882    6.3912 C   0  0  0  0  0  0  0  0  0  0  0  0
    1.6637   -3.5316    6.1231 C   0  0  0  0  0  0  0  0  0  0  0  0
    1.7408   -2.6780    5.0083 C   0  0  0  0  0  0  0  0  0  0  0  0
    0.6102   -1.8208    4.7136 C   0  0  0  0  0  0  0  0  0  0  0  0
    0.3643   -0.6589    5.3732 N   0  0  0  0  0  0  0  0  0  0  0  0
    1.1705   -0.0373    6.4781 C   0  0  0  0  0  0  0  0  0  0  0  0
    0.5332   -0.1607    7.7954 C   0  0  0  0  0  0  0  0  0  0  0  0
   -0.3380   -2.0125    3.6677 C   0  0  0  0  0  0  0  0  0  0  0  0
   -0.4636   -3.1068    2.6242 C   0  0  0  0  0  0  0  0  0  0  0  0
   -1.3718   -4.3534    3.0451 C   0  0  0  0  0  0  0  0  0  0  0  0
   -1.2474   -5.4077    1.9492 C   0  0  0  0  0  0  0  0  0  0  0  0
   -0.8773   -5.0211    4.2797 C   0  0  0  0  0  0  0  0  0  0  0  0
   -2.8381   -3.9766    3.2494 C   0  0  0  0  0  0  0  0  0  0  0  0
   -3.6807   -3.8111    2.0164 O   0  0  0  0  0  0  0  0  0  0  0  0
   -5.0199   -4.3220    1.8788 C   0  0  0  0  0  0  0  0  0  0  0  0
   -5.7767   -4.0498    0.5837 C   0  0  0  0  0  0  0  0  0  0  0  0
   -4.8603   -3.6432   -0.4324 N   0  0  0  0  0  0  0  0  0  0  0  0
   -5.3811   -3.3667   -1.6951 N   0  0  0  0  0  0  0  0  0  0  0  0
   -5.1694   -2.1585   -2.2988 C   0  0  0  0  0  0  0  0  0  0  0  0
   -4.4156   -1.1055   -1.5369 C   0  0  0  0  0  0  0  0  0  0  0  0
   -3.5014   -0.3724   -2.3931 N   0  0  0  0  0  0  0  0  0  0  0  0
   -2.1685   -0.5898   -2.4107 C   0  0  0  0  0  0  0  0  0  0  0  0
   -1.3658    0.3434   -3.2547 C   0  0  0  0  0  0  0  0  0  0  0  0
   -0.8635   -0.2631   -4.6032 C   0  0  0  0  0  0  0  0  0  0  0  0
   -0.5353    0.7812   -5.6206 C   0  0  0  0  0  0  0  0  0  0  0  0
   -1.6954   -1.3767   -5.1365 C   0  0  0  0  0  0  0  0  0  0  0  0
   -0.2584    0.8117   -2.4113 N   0  0  0  0  0  0  0  0  0  0  0  0
   -0.5004    1.8330   -1.5176 C   0  0  0  0  0  0  0  0  0  0  0  0
    0.5043    2.3893   -0.5386 C   0  0  0  0  0  0  0  0  0  0  0  0
    0.1301    3.7968   -0.0554 C   0  0  0  0  0  0  0  0  0  0  0  0
    1.0617    4.2697    1.0057 C   0  0  0  0  0  0  0  0  0  0  0  0
    1.1774    3.2604    2.0703 N   0  0  0  0  0  0  0  0  0  0  0  0
    0.9696    3.5589    3.3811 C   0  0  0  0  0  0  0  0  0  0  0  0
    0.2539    4.6861    3.7313 C   0  0  0  0  0  0  0  0  0  0  0  0
   -0.3395    5.6246    4.0656 C   0  0  0  0  0  0  0  0  0  0  0  0
   -1.1468    6.7793    4.2080 C   0  0  0  0  0  0  0  0  0  0  0  0
   -1.9095    6.9451    3.0273 N   0  0  0  0  0  0  0  0  0  0  0  0
   -1.5983    7.9175    2.0775 C   0  0  0  0  0  0  0  0  0  0  0  0
   -2.9979    6.0861    2.7744 C   0  0  0  0  0  0  0  0  0  0  0  0
   -0.2642    7.9888    4.4476 C   0  0  0  0  0  0  0  0  0  0  0  0
   -2.0896    6.6832    5.3897 C   0  0  0  0  0  0  0  0  0  0  0  0
    1.3840    2.7971    4.2696 O   0  0  0  0  0  0  0  0  0  0  0  0
    1.4964    1.9168    1.6707 C   0  0  0  0  0  0  0  0  0  0  0  0
    0.5301    1.4408    0.6487 C   0  0  0  0  0  0  0  0  0  0  0  0
   -1.6487    2.3147   -1.4959 O   0  0  0  0  0  0  0  0  0  0  0  0
    1.0298    0.1005   -2.4662 C   0  0  0  0  0  0  0  0  0  0  0  0
   -1.6642   -1.4215   -1.6681 O   0  0  0  0  0  0  0  0  0  0  0  0
   -5.4482   -0.1149   -0.8538 C   0  0  0  0  0  0  0  0  0  0  0  0
   -4.8324    0.9295    0.1244 C   0  0  0  0  0  0  0  0  0  0  0  0
   -4.4118    0.1945    1.3576 C   0  0  0  0  0  0  0  0  0  0  0  0
   -3.9388    1.0898    2.3889 N   0  0  0  0  0  0  0  0  0  0  0  0
   -4.8344    2.2002    2.7231 C   0  0  0  0  0  0  0  0  0  0  0  0
   -5.3953    2.8577    1.4551 C   0  0  0  0  0  0  0  0  0  0  0  0
   -5.8893    1.8681    0.4828 O   0  0  0  0  0  0  0  0  0  0  0  0
   -5.6142   -1.8935   -3.4277 O   0  0  0  0  0  0  0  0  0  0  0  0
   -6.1012   -4.4698   -2.3388 C   0  0  0  0  0  0  0  0  0  0  0  0
   -7.1438   -5.0251   -1.3519 C   0  0  0  0  0  0  0  0  0  0  0  0
   -6.5592   -5.2968    0.0476 C   0  0  0  0  0  0  0  0  0  0  0  0
   -5.6104   -4.9766    2.7607 O   0  0  0  0  0  0  0  0  0  0  0  0
   -1.1717   -0.8831    3.7682 C   0  0  0  0  0  0  0  0  0  0  0  0
   -0.7190   -0.0902    4.8245 C   0  0  0  0  0  0  0  0  0  0  0  0
   -1.3932    1.1423    5.1154 C   0  0  0  0  0  0  0  0  0  0  0  0
   -2.4657    1.4981    4.2914 C   0  0  0  0  0  0  0  0  0  0  0  0
   -2.8869    0.6942    3.2214 C   0  0  0  0  0  0  0  0  0  0  0  0
   -2.2418   -0.5239    2.9609 C   0  0  0  0  0  0  0  0  0  0  0  0
    1.7604    2.4895   -1.1016 F   0  0  0  0  0  0  0  0  0  0  0  0
  1  2  1  0  0  0  0
  2  3  1  0  0  0  0
  2  5  1  0  0  0  0
  3  4  1  0  0  0  0
  5  6  4  0  0  0  0
  5 10  4  0  0  0  0
  6  7  4  0  0  0  0
  7  8  4  0  0  0  0
  8  9  4  0  0  0  0
  9 10  4  0  0  0  0
 10 11  1  0  0  0  0
 11 12  4  0  0  0  0
 11 15  4  0  0  0  0
 12 13  1  0  0  0  0
 12 68  4  0  0  0  0
 13 14  1  0  0  0  0
 15 16  1  0  0  0  0
 15 67  4  0  0  0  0
 16 17  1  0  0  0  0
 17 18  1  0  0  0  0
 17 19  1  0  0  0  0
 17 20  1  0  0  0  0
 20 21  1  0  0  0  0
 21 22  1  0  0  0  0
 22 23  1  0  0  0  0
 22 66  2  0  0  0  0
 23 24  1  0  0  0  0
 23 65  1  0  0  0  0
 24 25  1  0  0  0  0
 25 26  1  0  0  0  0
 25 63  1  0  0  0  0
 26 27  1  0  0  0  0
 26 62  2  0  0  0  0
 27 28  1  0  0  0  0
 27 55  1  0  0  0  0
 28 29  1  0  0  0  0
 29 30  1  0  0  0  0
 29 54  2  0  0  0  0
 30 31  1  0  0  0  0
 30 34  1  0  0  0  0
 31 32  1  0  0  0  0
 31 33  1  0  0  0  0
 34 35  1  0  0  0  0
 34 53  1  0  0  0  0
 35 36  1  0  0  0  0
 35 52  2  0  0  0  0
 36 37  1  0  0  0  0
 36 51  1  0  0  0  0
 36 73  1  0  0  0  0
 37 38  1  0  0  0  0
 38 39  1  0  0  0  0
 39 40  1  0  0  0  0
 39 50  1  0  0  0  0
 40 41  1  0  0  0  0
 40 49  2  0  0  0  0
 41 42  1  0  0  0  0
 42 43  1  0  0  0  0
 43 44  1  0  0  0  0
 43 47  1  0  0  0  0
 43 48  1  0  0  0  0
 44 45  1  0  0  0  0
 44 46  1  0  0  0  0
 50 51  1  0  0  0  0
 55 56  1  0  0  0  0
 56 57  1  0  0  0  0
 56 61  1  0  0  0  0
 57 58  1  0  0  0  0
 58 59  1  0  0  0  0
 58 71  1  0  0  0  0
 59 60  1  0  0  0  0
 60 61  1  0  0  0  0
 63 64  1  0  0  0  0
 64 65  1  0  0  0  0
 67 68  4  0  0  0  0
 67 72  4  0  0  0  0
 68 69  4  0  0  0  0
 69 70  4  0  0  0  0
 70 71  4  0  0  0  0
 71 72  4  0  0  0  0
M  END
$$$$
