mol_ETKDG1_88
  PyMOL3.1          3D                             0

 73 79  0  0  0  0  0  0  0  0999 V2000
   -5.4178   -5.2180    0.1464 C   0  0  0  0  0  0  0  0  0  0  0  0
   -4.2746   -5.2187   -0.8095 C   0  0  0  0  0  0  0  0  0  0  0  0
   -4.6537   -5.0357   -2.1694 O   0  0  0  0  0  0  0  0  0  0  0  0
   -5.0836   -3.7531   -2.5563 C   0  0  0  0  0  0  0  0  0  0  0  0
   -3.4870   -6.4788   -0.7505 C   0  0  0  0  0  0  0  0  0  0  0  0
   -3.9824   -7.5428   -1.3680 N   0  0  0  0  0  0  0  0  0  0  0  0
   -3.3629   -8.7403   -1.3180 C   0  0  0  0  0  0  0  0  0  0  0  0
   -2.1747   -8.9186   -0.6017 C   0  0  0  0  0  0  0  0  0  0  0  0
   -1.6415   -7.8123    0.0724 C   0  0  0  0  0  0  0  0  0  0  0  0
   -2.2930   -6.5737   -0.0323 C   0  0  0  0  0  0  0  0  0  0  0  0
   -1.6908   -5.4378    0.6345 C   0  0  0  0  0  0  0  0  0  0  0  0
   -1.9424   -5.1062    1.9329 N   0  0  0  0  0  0  0  0  0  0  0  0
   -2.8865   -5.7812    2.8948 C   0  0  0  0  0  0  0  0  0  0  0  0
   -2.2145   -6.5744    3.9271 C   0  0  0  0  0  0  0  0  0  0  0  0
   -0.8098   -4.4825    0.0349 C   0  0  0  0  0  0  0  0  0  0  0  0
   -0.3271   -4.2941   -1.3772 C   0  0  0  0  0  0  0  0  0  0  0  0
    0.9604   -5.0916   -1.8620 C   0  0  0  0  0  0  0  0  0  0  0  0
    1.2497   -4.6367   -3.2778 C   0  0  0  0  0  0  0  0  0  0  0  0
    0.6985   -6.5517   -1.9863 C   0  0  0  0  0  0  0  0  0  0  0  0
    2.2043   -4.8622   -0.9854 C   0  0  0  0  0  0  0  0  0  0  0  0
    3.0774   -3.6939   -1.3669 O   0  0  0  0  0  0  0  0  0  0  0  0
    4.5055   -3.7117   -1.4321 C   0  0  0  0  0  0  0  0  0  0  0  0
    5.2442   -2.4272   -1.8147 C   0  0  0  0  0  0  0  0  0  0  0  0
    4.3519   -1.5461   -2.5077 N   0  0  0  0  0  0  0  0  0  0  0  0
    4.8541   -0.3385   -2.9868 N   0  0  0  0  0  0  0  0  0  0  0  0
    4.2696    0.8611   -2.6425 C   0  0  0  0  0  0  0  0  0  0  0  0
    3.0893    0.8493   -1.7050 C   0  0  0  0  0  0  0  0  0  0  0  0
    2.0598    1.8024   -2.1023 N   0  0  0  0  0  0  0  0  0  0  0  0
    0.9203    1.4440   -2.7378 C   0  0  0  0  0  0  0  0  0  0  0  0
   -0.1098    2.5203   -2.9425 C   0  0  0  0  0  0  0  0  0  0  0  0
   -0.1355    3.1684   -4.3503 C   0  0  0  0  0  0  0  0  0  0  0  0
   -0.7874    4.5052   -4.4000 C   0  0  0  0  0  0  0  0  0  0  0  0
    1.0856    3.0313   -5.1690 C   0  0  0  0  0  0  0  0  0  0  0  0
   -1.4127    1.9295   -2.6081 N   0  0  0  0  0  0  0  0  0  0  0  0
   -1.7990    1.9033   -1.2904 C   0  0  0  0  0  0  0  0  0  0  0  0
   -3.0738    1.2764   -0.7658 C   0  0  0  0  0  0  0  0  0  0  0  0
   -2.8394   -0.2158   -0.7017 C   0  0  0  0  0  0  0  0  0  0  0  0
   -4.0431   -0.9349   -0.1738 C   0  0  0  0  0  0  0  0  0  0  0  0
   -4.3643   -0.3952    1.1566 N   0  0  0  0  0  0  0  0  0  0  0  0
   -4.4146   -1.2434    2.2427 C   0  0  0  0  0  0  0  0  0  0  0  0
   -4.2516   -0.8071    3.5630 C   0  0  0  0  0  0  0  0  0  0  0  0
   -4.1578   -0.5609    4.7092 C   0  0  0  0  0  0  0  0  0  0  0  0
   -3.9810   -0.0540    6.0152 C   0  0  0  0  0  0  0  0  0  0  0  0
   -4.3044    1.3296    6.0149 N   0  0  0  0  0  0  0  0  0  0  0  0
   -5.6273    1.7410    6.2550 C   0  0  0  0  0  0  0  0  0  0  0  0
   -3.3796    2.2675    5.5380 C   0  0  0  0  0  0  0  0  0  0  0  0
   -4.8689   -0.7970    6.9988 C   0  0  0  0  0  0  0  0  0  0  0  0
   -2.5568   -0.2409    6.4953 C   0  0  0  0  0  0  0  0  0  0  0  0
   -4.5573   -2.4572    2.0606 O   0  0  0  0  0  0  0  0  0  0  0  0
   -4.5809    1.0296    1.2236 C   0  0  0  0  0  0  0  0  0  0  0  0
   -3.4412    1.7898    0.6422 C   0  0  0  0  0  0  0  0  0  0  0  0
   -1.0219    2.4155   -0.4591 O   0  0  0  0  0  0  0  0  0  0  0  0
   -2.2079    1.2833   -3.6715 C   0  0  0  0  0  0  0  0  0  0  0  0
    0.7067    0.2653   -2.9947 O   0  0  0  0  0  0  0  0  0  0  0  0
    3.5673    1.1657   -0.2260 C   0  0  0  0  0  0  0  0  0  0  0  0
    2.4616    1.0967    0.8772 C   0  0  0  0  0  0  0  0  0  0  0  0
    2.1460   -0.3401    1.1372 C   0  0  0  0  0  0  0  0  0  0  0  0
    1.2005   -0.5212    2.2242 N   0  0  0  0  0  0  0  0  0  0  0  0
    1.5763    0.1623    3.4766 C   0  0  0  0  0  0  0  0  0  0  0  0
    2.0124    1.6191    3.1923 C   0  0  0  0  0  0  0  0  0  0  0  0
    2.9924    1.6942    2.0963 O   0  0  0  0  0  0  0  0  0  0  0  0
    4.7228    1.9463   -3.0410 O   0  0  0  0  0  0  0  0  0  0  0  0
    5.9885   -0.4503   -3.9087 C   0  0  0  0  0  0  0  0  0  0  0  0
    7.0688   -1.3491   -3.2632 C   0  0  0  0  0  0  0  0  0  0  0  0
    6.4859   -2.6767   -2.7344 C   0  0  0  0  0  0  0  0  0  0  0  0
    5.1839   -4.7248   -1.1775 O   0  0  0  0  0  0  0  0  0  0  0  0
   -0.5169   -3.5949    1.0881 C   0  0  0  0  0  0  0  0  0  0  0  0
   -1.2285   -4.0010    2.2207 C   0  0  0  0  0  0  0  0  0  0  0  0
   -1.1274   -3.2163    3.4266 C   0  0  0  0  0  0  0  0  0  0  0  0
   -0.3132   -2.0664    3.3883 C   0  0  0  0  0  0  0  0  0  0  0  0
    0.3939   -1.6831    2.2360 C   0  0  0  0  0  0  0  0  0  0  0  0
    0.2812   -2.4520    1.0659 C   0  0  0  0  0  0  0  0  0  0  0  0
   -4.1605    1.5936   -1.5709 F   0  0  0  0  0  0  0  0  0  0  0  0
  1  2  1  0  0  0  0
  2  3  1  0  0  0  0
  2  5  1  0  0  0  0
  3  4  1  0  0  0  0
  5  6  4  0  0  0  0
  5 10  4  0  0  0  0
  6  7  4  0  0  0  0
  7  8  4  0  0  0  0
  8  9  4  0  0  0  0
  9 10  4  0  0  0  0
 10 11  1  0  0  0  0
 11 12  4  0  0  0  0
 11 15  4  0  0  0  0
 12 13  1  0  0  0  0
 12 68  4  0  0  0  0
 13 14  1  0  0  0  0
 15 16  1  0  0  0  0
 15 67  4  0  0  0  0
 16 17  1  0  0  0  0
 17 18  1  0  0  0  0
 17 19  1  0  0  0  0
 17 20  1  0  0  0  0
 20 21  1  0  0  0  0
 21 22  1  0  0  0  0
 22 23  1  0  0  0  0
 22 66  2  0  0  0  0
 23 24  1  0  0  0  0
 23 65  1  0  0  0  0
 24 25  1  0  0  0  0
 25 26  1  0  0  0  0
 25 63  1  0  0  0  0
 26 27  1  0  0  0  0
 26 62  2  0  0  0  0
 27 28  1  0  0  0  0
 27 55  1  0  0  0  0
 28 29  1  0  0  0  0
 29 30  1  0  0  0  0
 29 54  2  0  0  0  0
 30 31  1  0  0  0  0
 30 34  1  0  0  0  0
 31 32  1  0  0  0  0
 31 33  1  0  0  0  0
 34 35  1  0  0  0  0
 34 53  1  0  0  0  0
 35 36  1  0  0  0  0
 35 52  2  0  0  0  0
 36 37  1  0  0  0  0
 36 51  1  0  0  0  0
 36 73  1  0  0  0  0
 37 38  1  0  0  0  0
 38 39  1  0  0  0  0
 39 40  1  0  0  0  0
 39 50  1  0  0  0  0
 40 41  1  0  0  0  0
 40 49  2  0  0  0  0
 41 42  1  0  0  0  0
 42 43  1  0  0  0  0
 43 44  1  0  0  0  0
 43 47  1  0  0  0  0
 43 48  1  0  0  0  0
 44 45  1  0  0  0  0
 44 46  1  0  0  0  0
 50 51  1  0  0  0  0
 55 56  1  0  0  0  0
 56 57  1  0  0  0  0
 56 61  1  0  0  0  0
 57 58  1  0  0  0  0
 58 59  1  0  0  0  0
 58 71  1  0  0  0  0
 59 60  1  0  0  0  0
 60 61  1  0  0  0  0
 63 64  1  0  0  0  0
 64 65  1  0  0  0  0
 67 68  4  0  0  0  0
 67 72  4  0  0  0  0
 68 69  4  0  0  0  0
 69 70  4  0  0  0  0
 70 71  4  0  0  0  0
 71 72  4  0  0  0  0
M  END
$$$$
