mol_ETKDG1_80
  PyMOL3.1          3D                             0

 73 79  0  0  0  0  0  0  0  0999 V2000
   -3.1745   -2.5356    5.0571 C   0  0  0  0  0  0  0  0  0  0  0  0
   -2.1324   -1.5087    5.3110 C   0  0  0  0  0  0  0  0  0  0  0  0
   -2.4790   -0.5160    6.2537 O   0  0  0  0  0  0  0  0  0  0  0  0
   -3.3939    0.4688    5.8339 C   0  0  0  0  0  0  0  0  0  0  0  0
   -0.8492   -2.0979    5.7447 C   0  0  0  0  0  0  0  0  0  0  0  0
   -0.7538   -2.5480    6.9853 N   0  0  0  0  0  0  0  0  0  0  0  0
    0.3676   -3.1656    7.4241 C   0  0  0  0  0  0  0  0  0  0  0  0
    1.4722   -3.3651    6.5855 C   0  0  0  0  0  0  0  0  0  0  0  0
    1.3856   -2.8991    5.2652 C   0  0  0  0  0  0  0  0  0  0  0  0
    0.2195   -2.2278    4.8654 C   0  0  0  0  0  0  0  0  0  0  0  0
    0.1587   -1.6963    3.5260 C   0  0  0  0  0  0  0  0  0  0  0  0
   -0.2281   -2.4380    2.4569 N   0  0  0  0  0  0  0  0  0  0  0  0
   -0.7001   -3.8702    2.4473 C   0  0  0  0  0  0  0  0  0  0  0  0
    0.2707   -4.8161    1.9108 C   0  0  0  0  0  0  0  0  0  0  0  0
    0.4035   -0.3449    3.1484 C   0  0  0  0  0  0  0  0  0  0  0  0
    0.7385    0.8792    3.9718 C   0  0  0  0  0  0  0  0  0  0  0  0
    2.2806    1.1282    4.2857 C   0  0  0  0  0  0  0  0  0  0  0  0
    2.8460    0.1286    5.2725 C   0  0  0  0  0  0  0  0  0  0  0  0
    2.4008    2.4546    4.9904 C   0  0  0  0  0  0  0  0  0  0  0  0
    3.1388    1.1417    3.0362 C   0  0  0  0  0  0  0  0  0  0  0  0
    3.2222    2.4915    2.3465 O   0  0  0  0  0  0  0  0  0  0  0  0
    4.3913    2.9951    1.6893 C   0  0  0  0  0  0  0  0  0  0  0  0
    4.3488    4.3730    1.0346 C   0  0  0  0  0  0  0  0  0  0  0  0
    3.1519    5.0724    1.4132 N   0  0  0  0  0  0  0  0  0  0  0  0
    2.9840    6.3766    0.9435 N   0  0  0  0  0  0  0  0  0  0  0  0
    1.8596    6.7415    0.2534 C   0  0  0  0  0  0  0  0  0  0  0  0
    0.8070    5.6958   -0.0039 C   0  0  0  0  0  0  0  0  0  0  0  0
   -0.5328    6.2401    0.0979 N   0  0  0  0  0  0  0  0  0  0  0  0
   -1.3666    5.9587    1.1165 C   0  0  0  0  0  0  0  0  0  0  0  0
   -2.7692    6.4559    0.9723 C   0  0  0  0  0  0  0  0  0  0  0  0
   -3.0863    7.7480    1.7995 C   0  0  0  0  0  0  0  0  0  0  0  0
   -1.9395    8.6624    1.9649 C   0  0  0  0  0  0  0  0  0  0  0  0
   -4.3196    8.4481    1.2836 C   0  0  0  0  0  0  0  0  0  0  0  0
   -3.6349    5.3200    1.3368 N   0  0  0  0  0  0  0  0  0  0  0  0
   -3.8866    4.3545    0.3756 C   0  0  0  0  0  0  0  0  0  0  0  0
   -4.6552    3.0664    0.5972 C   0  0  0  0  0  0  0  0  0  0  0  0
   -4.9929    2.3568   -0.7301 C   0  0  0  0  0  0  0  0  0  0  0  0
   -5.5615    0.9833   -0.5181 C   0  0  0  0  0  0  0  0  0  0  0  0
   -4.7279    0.2050    0.4171 N   0  0  0  0  0  0  0  0  0  0  0  0
   -4.2296   -1.0505    0.1522 C   0  0  0  0  0  0  0  0  0  0  0  0
   -4.0662   -1.5356   -1.1380 C   0  0  0  0  0  0  0  0  0  0  0  0
   -3.8716   -2.0659   -2.1671 C   0  0  0  0  0  0  0  0  0  0  0  0
   -3.6772   -2.5765   -3.4733 C   0  0  0  0  0  0  0  0  0  0  0  0
   -3.1710   -3.9204   -3.4269 N   0  0  0  0  0  0  0  0  0  0  0  0
   -1.7890   -4.1817   -3.5112 C   0  0  0  0  0  0  0  0  0  0  0  0
   -3.9956   -4.9660   -2.9262 C   0  0  0  0  0  0  0  0  0  0  0  0
   -2.7260   -1.6616   -4.2269 C   0  0  0  0  0  0  0  0  0  0  0  0
   -4.9908   -2.5488   -4.2364 C   0  0  0  0  0  0  0  0  0  0  0  0
   -3.8485   -1.7668    1.0935 O   0  0  0  0  0  0  0  0  0  0  0  0
   -4.4051    0.8363    1.6599 C   0  0  0  0  0  0  0  0  0  0  0  0
   -3.7467    2.1571    1.4113 C   0  0  0  0  0  0  0  0  0  0  0  0
   -3.4125    4.5490   -0.7619 O   0  0  0  0  0  0  0  0  0  0  0  0
   -4.0881    5.1892    2.7328 C   0  0  0  0  0  0  0  0  0  0  0  0
   -1.0102    5.2329    2.0277 O   0  0  0  0  0  0  0  0  0  0  0  0
    1.0007    5.0920   -1.4535 C   0  0  0  0  0  0  0  0  0  0  0  0
    0.0575    3.9034   -1.7710 C   0  0  0  0  0  0  0  0  0  0  0  0
    0.6130    2.7019   -1.0885 C   0  0  0  0  0  0  0  0  0  0  0  0
   -0.1271    1.5066   -1.3975 N   0  0  0  0  0  0  0  0  0  0  0  0
   -0.3478    1.2641   -2.8374 C   0  0  0  0  0  0  0  0  0  0  0  0
   -0.8239    2.5477   -3.5397 C   0  0  0  0  0  0  0  0  0  0  0  0
    0.0501    3.6887   -3.2074 O   0  0  0  0  0  0  0  0  0  0  0  0
    1.7087    7.8894   -0.1971 O   0  0  0  0  0  0  0  0  0  0  0  0
    4.0498    7.3201    1.2910 C   0  0  0  0  0  0  0  0  0  0  0  0
    5.4173    6.6951    0.9087 C   0  0  0  0  0  0  0  0  0  0  0  0
    5.5723    5.2622    1.4312 C   0  0  0  0  0  0  0  0  0  0  0  0
    5.4618    2.3654    1.6110 O   0  0  0  0  0  0  0  0  0  0  0  0
    0.1716   -0.3524    1.7630 C   0  0  0  0  0  0  0  0  0  0  0  0
   -0.2031   -1.6436    1.3846 C   0  0  0  0  0  0  0  0  0  0  0  0
   -0.5153   -1.9104    0.0139 C   0  0  0  0  0  0  0  0  0  0  0  0
   -0.4739   -0.8316   -0.8715 C   0  0  0  0  0  0  0  0  0  0  0  0
   -0.1273    0.4552   -0.4744 C   0  0  0  0  0  0  0  0  0  0  0  0
    0.2075    0.7173    0.8697 C   0  0  0  0  0  0  0  0  0  0  0  0
   -5.8463    3.3133    1.2633 F   0  0  0  0  0  0  0  0  0  0  0  0
  1  2  1  0  0  0  0
  2  3  1  0  0  0  0
  2  5  1  0  0  0  0
  3  4  1  0  0  0  0
  5  6  4  0  0  0  0
  5 10  4  0  0  0  0
  6  7  4  0  0  0  0
  7  8  4  0  0  0  0
  8  9  4  0  0  0  0
  9 10  4  0  0  0  0
 10 11  1  0  0  0  0
 11 12  4  0  0  0  0
 11 15  4  0  0  0  0
 12 13  1  0  0  0  0
 12 68  4  0  0  0  0
 13 14  1  0  0  0  0
 15 16  1  0  0  0  0
 15 67  4  0  0  0  0
 16 17  1  0  0  0  0
 17 18  1  0  0  0  0
 17 19  1  0  0  0  0
 17 20  1  0  0  0  0
 20 21  1  0  0  0  0
 21 22  1  0  0  0  0
 22 23  1  0  0  0  0
 22 66  2  0  0  0  0
 23 24  1  0  0  0  0
 23 65  1  0  0  0  0
 24 25  1  0  0  0  0
 25 26  1  0  0  0  0
 25 63  1  0  0  0  0
 26 27  1  0  0  0  0
 26 62  2  0  0  0  0
 27 28  1  0  0  0  0
 27 55  1  0  0  0  0
 28 29  1  0  0  0  0
 29 30  1  0  0  0  0
 29 54  2  0  0  0  0
 30 31  1  0  0  0  0
 30 34  1  0  0  0  0
 31 32  1  0  0  0  0
 31 33  1  0  0  0  0
 34 35  1  0  0  0  0
 34 53  1  0  0  0  0
 35 36  1  0  0  0  0
 35 52  2  0  0  0  0
 36 37  1  0  0  0  0
 36 51  1  0  0  0  0
 36 73  1  0  0  0  0
 37 38  1  0  0  0  0
 38 39  1  0  0  0  0
 39 40  1  0  0  0  0
 39 50  1  0  0  0  0
 40 41  1  0  0  0  0
 40 49  2  0  0  0  0
 41 42  1  0  0  0  0
 42 43  1  0  0  0  0
 43 44  1  0  0  0  0
 43 47  1  0  0  0  0
 43 48  1  0  0  0  0
 44 45  1  0  0  0  0
 44 46  1  0  0  0  0
 50 51  1  0  0  0  0
 55 56  1  0  0  0  0
 56 57  1  0  0  0  0
 56 61  1  0  0  0  0
 57 58  1  0  0  0  0
 58 59  1  0  0  0  0
 58 71  1  0  0  0  0
 59 60  1  0  0  0  0
 60 61  1  0  0  0  0
 63 64  1  0  0  0  0
 64 65  1  0  0  0  0
 67 68  4  0  0  0  0
 67 72  4  0  0  0  0
 68 69  4  0  0  0  0
 69 70  4  0  0  0  0
 70 71  4  0  0  0  0
 71 72  4  0  0  0  0
M  END
$$$$
