mol_bioactive_35
  PyMOL3.1          3D                             0

 73 79  0  0  0  0  0  0  0  0999 V2000
    3.5336    0.1835   -7.0447 C   0  0  0  0  0  0  0  0  0  0  0  0
    3.2120    1.4031   -7.7258 C   0  0  0  0  0  0  0  0  0  0  0  0
    3.5498    2.6063   -7.0448 O   0  0  0  0  0  0  0  0  0  0  0  0
    4.8123    2.8023   -6.4986 C   0  0  0  0  0  0  0  0  0  0  0  0
    1.8464    1.6336   -8.2008 C   0  0  0  0  0  0  0  0  0  0  0  0
    1.9115    2.2958   -9.3327 N   0  0  0  0  0  0  0  0  0  0  0  0
    0.8385    2.5434  -10.0719 C   0  0  0  0  0  0  0  0  0  0  0  0
   -0.4117    2.0963   -9.7038 C   0  0  0  0  0  0  0  0  0  0  0  0
   -0.5377    1.3978   -8.5053 C   0  0  0  0  0  0  0  0  0  0  0  0
    0.6052    1.1649   -7.7351 C   0  0  0  0  0  0  0  0  0  0  0  0
    0.4123    0.4790   -6.4773 C   0  0  0  0  0  0  0  0  0  0  0  0
    0.3384   -0.8689   -6.3465 N   0  0  0  0  0  0  0  0  0  0  0  0
    0.5695   -1.8909   -7.4184 C   0  0  0  0  0  0  0  0  0  0  0  0
   -0.6091   -2.6060   -7.8428 C   0  0  0  0  0  0  0  0  0  0  0  0
    0.2868    1.0779   -5.2169 C   0  0  0  0  0  0  0  0  0  0  0  0
    0.5930    2.4511   -4.7941 C   0  0  0  0  0  0  0  0  0  0  0  0
   -0.4461    3.5744   -4.8218 C   0  0  0  0  0  0  0  0  0  0  0  0
    0.1217    4.7054   -4.0012 C   0  0  0  0  0  0  0  0  0  0  0  0
   -0.6605    4.1534   -6.1748 C   0  0  0  0  0  0  0  0  0  0  0  0
   -1.7174    3.1279   -4.2576 C   0  0  0  0  0  0  0  0  0  0  0  0
   -2.0322    3.4780   -2.8595 O   0  0  0  0  0  0  0  0  0  0  0  0
   -3.3390    3.5861   -2.3435 C   0  0  0  0  0  0  0  0  0  0  0  0
   -3.4929    3.9519   -0.9065 C   0  0  0  0  0  0  0  0  0  0  0  0
   -2.2258    4.0796   -0.2604 N   0  0  0  0  0  0  0  0  0  0  0  0
   -2.1903    4.4919    1.0578 N   0  0  0  0  0  0  0  0  0  0  0  0
   -1.4754    3.7942    1.9816 C   0  0  0  0  0  0  0  0  0  0  0  0
   -0.7178    2.5397    1.5987 C   0  0  0  0  0  0  0  0  0  0  0  0
    0.4645    2.4295    2.4445 N   0  0  0  0  0  0  0  0  0  0  0  0
    1.7367    2.6250    2.0843 C   0  0  0  0  0  0  0  0  0  0  0  0
    2.7588    2.5350    3.1602 C   0  0  0  0  0  0  0  0  0  0  0  0
    3.4304    3.9023    3.4834 C   0  0  0  0  0  0  0  0  0  0  0  0
    4.3942    3.8279    4.6157 C   0  0  0  0  0  0  0  0  0  0  0  0
    2.4241    4.9833    3.6832 C   0  0  0  0  0  0  0  0  0  0  0  0
    3.7486    1.5186    2.8975 N   0  0  0  0  0  0  0  0  0  0  0  0
    3.6764    0.3349    3.5812 C   0  0  0  0  0  0  0  0  0  0  0  0
    4.6986   -0.7631    3.4803 C   0  0  0  0  0  0  0  0  0  0  0  0
    4.6293   -1.7708    4.6454 C   0  0  0  0  0  0  0  0  0  0  0  0
    5.6033   -2.8483    4.4970 C   0  0  0  0  0  0  0  0  0  0  0  0
    5.5696   -3.4298    3.1535 N   0  0  0  0  0  0  0  0  0  0  0  0
    5.5820   -4.7606    2.9207 C   0  0  0  0  0  0  0  0  0  0  0  0
    5.2827   -5.6721    3.9088 C   0  0  0  0  0  0  0  0  0  0  0  0
    5.0214   -6.5214    4.6481 C   0  0  0  0  0  0  0  0  0  0  0  0
    4.5504   -7.4336    5.6140 C   0  0  0  0  0  0  0  0  0  0  0  0
    3.2843   -7.9186    5.1926 N   0  0  0  0  0  0  0  0  0  0  0  0
    3.2108   -8.4993    3.9208 C   0  0  0  0  0  0  0  0  0  0  0  0
    2.2521   -8.1840    6.0814 C   0  0  0  0  0  0  0  0  0  0  0  0
    4.4830   -6.7252    6.9334 C   0  0  0  0  0  0  0  0  0  0  0  0
    5.5002   -8.6059    5.7759 C   0  0  0  0  0  0  0  0  0  0  0  0
    5.8290   -5.1628    1.7742 O   0  0  0  0  0  0  0  0  0  0  0  0
    5.5318   -2.5349    2.0432 C   0  0  0  0  0  0  0  0  0  0  0  0
    4.5016   -1.5087    2.1953 C   0  0  0  0  0  0  0  0  0  0  0  0
    2.7076    0.1644    4.3431 O   0  0  0  0  0  0  0  0  0  0  0  0
    4.7622    1.7857    1.8729 C   0  0  0  0  0  0  0  0  0  0  0  0
    2.0048    2.7830    0.9249 O   0  0  0  0  0  0  0  0  0  0  0  0
   -1.6815    1.3240    1.8047 C   0  0  0  0  0  0  0  0  0  0  0  0
   -1.6693    0.0278    0.9978 C   0  0  0  0  0  0  0  0  0  0  0  0
   -0.8027    0.0391   -0.1782 C   0  0  0  0  0  0  0  0  0  0  0  0
   -0.7893   -1.1938   -0.9118 N   0  0  0  0  0  0  0  0  0  0  0  0
   -1.1005   -2.4058   -0.2276 C   0  0  0  0  0  0  0  0  0  0  0  0
   -1.5207   -2.3295    1.1860 C   0  0  0  0  0  0  0  0  0  0  0  0
   -1.3868   -1.0627    1.8684 O   0  0  0  0  0  0  0  0  0  0  0  0
   -1.4910    4.1405    3.1651 O   0  0  0  0  0  0  0  0  0  0  0  0
   -2.9237    5.7208    1.3640 C   0  0  0  0  0  0  0  0  0  0  0  0
   -4.3261    5.6872    0.7372 C   0  0  0  0  0  0  0  0  0  0  0  0
   -4.3138    5.2423   -0.7080 C   0  0  0  0  0  0  0  0  0  0  0  0
   -4.4047    3.4213   -2.9859 O   0  0  0  0  0  0  0  0  0  0  0  0
    0.0041    0.0081   -4.3410 C   0  0  0  0  0  0  0  0  0  0  0  0
    0.0728   -1.1636   -5.0646 C   0  0  0  0  0  0  0  0  0  0  0  0
   -0.1186   -2.4158   -4.3818 C   0  0  0  0  0  0  0  0  0  0  0  0
   -0.3875   -2.3851   -3.0094 C   0  0  0  0  0  0  0  0  0  0  0  0
   -0.4795   -1.1916   -2.2890 C   0  0  0  0  0  0  0  0  0  0  0  0
   -0.2727    0.0311   -2.9637 C   0  0  0  0  0  0  0  0  0  0  0  0
    5.9704   -0.2274    3.5181 F   0  0  0  0  0  0  0  0  0  0  0  0
  1  2  1  0  0  0  0
  2  3  1  0  0  0  0
  2  5  1  0  0  0  0
  3  4  1  0  0  0  0
  5  6  4  0  0  0  0
  5 10  4  0  0  0  0
  6  7  4  0  0  0  0
  7  8  4  0  0  0  0
  8  9  4  0  0  0  0
  9 10  4  0  0  0  0
 10 11  1  0  0  0  0
 11 12  4  0  0  0  0
 11 15  4  0  0  0  0
 12 13  1  0  0  0  0
 12 68  4  0  0  0  0
 13 14  1  0  0  0  0
 15 16  1  0  0  0  0
 15 67  4  0  0  0  0
 16 17  1  0  0  0  0
 17 18  1  0  0  0  0
 17 19  1  0  0  0  0
 17 20  1  0  0  0  0
 20 21  1  0  0  0  0
 21 22  1  0  0  0  0
 22 23  1  0  0  0  0
 22 66  2  0  0  0  0
 23 24  1  0  0  0  0
 23 65  1  0  0  0  0
 24 25  1  0  0  0  0
 25 26  1  0  0  0  0
 25 63  1  0  0  0  0
 26 27  1  0  0  0  0
 26 62  2  0  0  0  0
 27 28  1  0  0  0  0
 27 55  1  0  0  0  0
 28 29  1  0  0  0  0
 29 30  1  0  0  0  0
 29 54  2  0  0  0  0
 30 31  1  0  0  0  0
 30 34  1  0  0  0  0
 31 32  1  0  0  0  0
 31 33  1  0  0  0  0
 34 35  1  0  0  0  0
 34 53  1  0  0  0  0
 35 36  1  0  0  0  0
 35 52  2  0  0  0  0
 36 37  1  0  0  0  0
 36 51  1  0  0  0  0
 36 73  1  0  0  0  0
 37 38  1  0  0  0  0
 38 39  1  0  0  0  0
 39 40  1  0  0  0  0
 39 50  1  0  0  0  0
 40 41  1  0  0  0  0
 40 49  2  0  0  0  0
 41 42  1  0  0  0  0
 42 43  1  0  0  0  0
 43 44  1  0  0  0  0
 43 47  1  0  0  0  0
 43 48  1  0  0  0  0
 44 45  1  0  0  0  0
 44 46  1  0  0  0  0
 50 51  1  0  0  0  0
 55 56  1  0  0  0  0
 56 57  1  0  0  0  0
 56 61  1  0  0  0  0
 57 58  1  0  0  0  0
 58 59  1  0  0  0  0
 58 71  1  0  0  0  0
 59 60  1  0  0  0  0
 60 61  1  0  0  0  0
 63 64  1  0  0  0  0
 64 65  1  0  0  0  0
 67 68  4  0  0  0  0
 67 72  4  0  0  0  0
 68 69  4  0  0  0  0
 69 70  4  0  0  0  0
 70 71  4  0  0  0  0
 71 72  4  0  0  0  0
M  END
$$$$
