mol_ETKDG5_288
  PyMOL3.1          3D                             0

 73 79  0  0  0  0  0  0  0  0999 V2000
   -3.8217   -4.7574   -3.1032 C   0  0  0  0  0  0  0  0  0  0  0  0
   -2.9161   -4.4574   -4.2373 C   0  0  0  0  0  0  0  0  0  0  0  0
   -2.0851   -5.5287   -4.6425 O   0  0  0  0  0  0  0  0  0  0  0  0
   -1.0162   -5.8649   -3.7845 C   0  0  0  0  0  0  0  0  0  0  0  0
   -3.6415   -3.9897   -5.4383 C   0  0  0  0  0  0  0  0  0  0  0  0
   -4.2852   -4.8868   -6.1727 N   0  0  0  0  0  0  0  0  0  0  0  0
   -5.0083   -4.5212   -7.2556 C   0  0  0  0  0  0  0  0  0  0  0  0
   -5.1220   -3.1813   -7.6434 C   0  0  0  0  0  0  0  0  0  0  0  0
   -4.4629   -2.2165   -6.8762 C   0  0  0  0  0  0  0  0  0  0  0  0
   -3.6951   -2.6442   -5.7772 C   0  0  0  0  0  0  0  0  0  0  0  0
   -2.9917   -1.6435   -5.0208 C   0  0  0  0  0  0  0  0  0  0  0  0
   -3.5705   -0.9440   -4.0182 N   0  0  0  0  0  0  0  0  0  0  0  0
   -4.9710   -1.0860   -3.4771 C   0  0  0  0  0  0  0  0  0  0  0  0
   -5.8599    0.0098   -3.8929 C   0  0  0  0  0  0  0  0  0  0  0  0
   -1.6143   -1.3001   -5.1515 C   0  0  0  0  0  0  0  0  0  0  0  0
   -0.5035   -1.8885   -5.9926 C   0  0  0  0  0  0  0  0  0  0  0  0
   -0.2954   -1.2812   -7.4478 C   0  0  0  0  0  0  0  0  0  0  0  0
   -1.4299   -1.6458   -8.3946 C   0  0  0  0  0  0  0  0  0  0  0  0
    0.9178   -1.9497   -8.0382 C   0  0  0  0  0  0  0  0  0  0  0  0
   -0.1067    0.2365   -7.4488 C   0  0  0  0  0  0  0  0  0  0  0  0
    1.3376    0.6774   -7.2710 O   0  0  0  0  0  0  0  0  0  0  0  0
    1.9953    1.6478   -8.0836 C   0  0  0  0  0  0  0  0  0  0  0  0
    3.4428    2.0190   -7.7838 C   0  0  0  0  0  0  0  0  0  0  0  0
    4.0512    1.0260   -6.9435 N   0  0  0  0  0  0  0  0  0  0  0  0
    5.3921    1.2030   -6.6101 N   0  0  0  0  0  0  0  0  0  0  0  0
    5.8069    1.2154   -5.3047 C   0  0  0  0  0  0  0  0  0  0  0  0
    4.7867    1.0070   -4.2300 C   0  0  0  0  0  0  0  0  0  0  0  0
    5.2891    0.1989   -3.1376 N   0  0  0  0  0  0  0  0  0  0  0  0
    4.9744   -1.0956   -2.9740 C   0  0  0  0  0  0  0  0  0  0  0  0
    5.4229   -1.7352   -1.6985 C   0  0  0  0  0  0  0  0  0  0  0  0
    6.6544   -2.6856   -1.8638 C   0  0  0  0  0  0  0  0  0  0  0  0
    7.2924   -3.0289   -0.5565 C   0  0  0  0  0  0  0  0  0  0  0  0
    7.6362   -2.2171   -2.8922 C   0  0  0  0  0  0  0  0  0  0  0  0
    4.2558   -2.4354   -1.1532 N   0  0  0  0  0  0  0  0  0  0  0  0
    3.3386   -1.7147   -0.4164 C   0  0  0  0  0  0  0  0  0  0  0  0
    2.0525   -2.2732    0.1402 C   0  0  0  0  0  0  0  0  0  0  0  0
    1.0955   -2.4261   -1.0263 C   0  0  0  0  0  0  0  0  0  0  0  0
   -0.2031   -3.0145   -0.5780 C   0  0  0  0  0  0  0  0  0  0  0  0
   -0.7721   -2.1622    0.4734 N   0  0  0  0  0  0  0  0  0  0  0  0
   -2.0473   -1.6741    0.3458 C   0  0  0  0  0  0  0  0  0  0  0  0
   -2.5108   -0.5962    1.0920 C   0  0  0  0  0  0  0  0  0  0  0  0
   -3.0394    0.2762    1.6527 C   0  0  0  0  0  0  0  0  0  0  0  0
   -3.5650    1.3656    2.3803 C   0  0  0  0  0  0  0  0  0  0  0  0
   -4.9830    1.4362    2.1891 N   0  0  0  0  0  0  0  0  0  0  0  0
   -5.4807    1.8812    0.9446 C   0  0  0  0  0  0  0  0  0  0  0  0
   -5.8463    0.6457    2.9788 C   0  0  0  0  0  0  0  0  0  0  0  0
   -3.2180    1.2024    3.8472 C   0  0  0  0  0  0  0  0  0  0  0  0
   -2.9206    2.6624    1.9303 C   0  0  0  0  0  0  0  0  0  0  0  0
   -2.8102   -2.1678   -0.4814 O   0  0  0  0  0  0  0  0  0  0  0  0
    0.0761   -1.8721    1.6003 C   0  0  0  0  0  0  0  0  0  0  0  0
    1.3978   -1.3458    1.1831 C   0  0  0  0  0  0  0  0  0  0  0  0
    3.5867   -0.5096   -0.2195 O   0  0  0  0  0  0  0  0  0  0  0  0
    4.0320   -3.8452   -1.5215 C   0  0  0  0  0  0  0  0  0  0  0  0
    4.2516   -1.6576   -3.7802 O   0  0  0  0  0  0  0  0  0  0  0  0
    4.3002    2.3980   -3.6755 C   0  0  0  0  0  0  0  0  0  0  0  0
    3.1727    2.2996   -2.6209 C   0  0  0  0  0  0  0  0  0  0  0  0
    1.8980    2.0758   -3.3543 C   0  0  0  0  0  0  0  0  0  0  0  0
    0.7724    2.0625   -2.4581 N   0  0  0  0  0  0  0  0  0  0  0  0
    0.6730    3.2425   -1.5797 C   0  0  0  0  0  0  0  0  0  0  0  0
    2.0271    3.5294   -0.9149 C   0  0  0  0  0  0  0  0  0  0  0  0
    3.1054    3.5626   -1.9117 O   0  0  0  0  0  0  0  0  0  0  0  0
    6.9878    1.4379   -4.9888 O   0  0  0  0  0  0  0  0  0  0  0  0
    6.3142    1.2952   -7.7433 C   0  0  0  0  0  0  0  0  0  0  0  0
    5.7878    2.3566   -8.7357 C   0  0  0  0  0  0  0  0  0  0  0  0
    4.3053    2.1452   -9.0800 C   0  0  0  0  0  0  0  0  0  0  0  0
    1.4449    2.2291   -9.0421 O   0  0  0  0  0  0  0  0  0  0  0  0
   -1.4405   -0.2961   -4.1886 C   0  0  0  0  0  0  0  0  0  0  0  0
   -2.6508   -0.1177   -3.5159 C   0  0  0  0  0  0  0  0  0  0  0  0
   -2.7281    0.8232   -2.4426 C   0  0  0  0  0  0  0  0  0  0  0  0
   -1.5628    1.5113   -2.1175 C   0  0  0  0  0  0  0  0  0  0  0  0
   -0.3631    1.3307   -2.8074 C   0  0  0  0  0  0  0  0  0  0  0  0
   -0.2861    0.3994   -3.8572 C   0  0  0  0  0  0  0  0  0  0  0  0
    2.2852   -3.4736    0.7850 F   0  0  0  0  0  0  0  0  0  0  0  0
  1  2  1  0  0  0  0
  2  3  1  0  0  0  0
  2  5  1  0  0  0  0
  3  4  1  0  0  0  0
  5  6  4  0  0  0  0
  5 10  4  0  0  0  0
  6  7  4  0  0  0  0
  7  8  4  0  0  0  0
  8  9  4  0  0  0  0
  9 10  4  0  0  0  0
 10 11  1  0  0  0  0
 11 12  4  0  0  0  0
 11 15  4  0  0  0  0
 12 13  1  0  0  0  0
 12 68  4  0  0  0  0
 13 14  1  0  0  0  0
 15 16  1  0  0  0  0
 15 67  4  0  0  0  0
 16 17  1  0  0  0  0
 17 18  1  0  0  0  0
 17 19  1  0  0  0  0
 17 20  1  0  0  0  0
 20 21  1  0  0  0  0
 21 22  1  0  0  0  0
 22 23  1  0  0  0  0
 22 66  2  0  0  0  0
 23 24  1  0  0  0  0
 23 65  1  0  0  0  0
 24 25  1  0  0  0  0
 25 26  1  0  0  0  0
 25 63  1  0  0  0  0
 26 27  1  0  0  0  0
 26 62  2  0  0  0  0
 27 28  1  0  0  0  0
 27 55  1  0  0  0  0
 28 29  1  0  0  0  0
 29 30  1  0  0  0  0
 29 54  2  0  0  0  0
 30 31  1  0  0  0  0
 30 34  1  0  0  0  0
 31 32  1  0  0  0  0
 31 33  1  0  0  0  0
 34 35  1  0  0  0  0
 34 53  1  0  0  0  0
 35 36  1  0  0  0  0
 35 52  2  0  0  0  0
 36 37  1  0  0  0  0
 36 51  1  0  0  0  0
 36 73  1  0  0  0  0
 37 38  1  0  0  0  0
 38 39  1  0  0  0  0
 39 40  1  0  0  0  0
 39 50  1  0  0  0  0
 40 41  1  0  0  0  0
 40 49  2  0  0  0  0
 41 42  1  0  0  0  0
 42 43  1  0  0  0  0
 43 44  1  0  0  0  0
 43 47  1  0  0  0  0
 43 48  1  0  0  0  0
 44 45  1  0  0  0  0
 44 46  1  0  0  0  0
 50 51  1  0  0  0  0
 55 56  1  0  0  0  0
 56 57  1  0  0  0  0
 56 61  1  0  0  0  0
 57 58  1  0  0  0  0
 58 59  1  0  0  0  0
 58 71  1  0  0  0  0
 59 60  1  0  0  0  0
 60 61  1  0  0  0  0
 63 64  1  0  0  0  0
 64 65  1  0  0  0  0
 67 68  4  0  0  0  0
 67 72  4  0  0  0  0
 68 69  4  0  0  0  0
 69 70  4  0  0  0  0
 70 71  4  0  0  0  0
 71 72  4  0  0  0  0
M  END
$$$$
