mol_ETKDG0_350
  PyMOL3.1          3D                             0

 73 79  0  0  0  0  0  0  0  0999 V2000
   -1.1288   -1.4662    6.4609 C   0  0  0  0  0  0  0  0  0  0  0  0
   -0.7370   -2.3870    5.3753 C   0  0  0  0  0  0  0  0  0  0  0  0
    0.5964   -2.3449    4.9851 O   0  0  0  0  0  0  0  0  0  0  0  0
    1.0319   -1.1682    4.3268 C   0  0  0  0  0  0  0  0  0  0  0  0
   -1.0821   -3.7908    5.6662 C   0  0  0  0  0  0  0  0  0  0  0  0
   -0.4744   -4.3928    6.6798 N   0  0  0  0  0  0  0  0  0  0  0  0
   -0.8216   -5.6413    7.0612 C   0  0  0  0  0  0  0  0  0  0  0  0
   -1.8309   -6.3513    6.4113 C   0  0  0  0  0  0  0  0  0  0  0  0
   -2.4835   -5.7294    5.3344 C   0  0  0  0  0  0  0  0  0  0  0  0
   -2.0576   -4.4499    4.9431 C   0  0  0  0  0  0  0  0  0  0  0  0
   -2.6532   -3.8432    3.7787 C   0  0  0  0  0  0  0  0  0  0  0  0
   -3.7986   -3.1225    3.8104 N   0  0  0  0  0  0  0  0  0  0  0  0
   -4.6163   -2.7649    5.0177 C   0  0  0  0  0  0  0  0  0  0  0  0
   -5.9077   -3.4340    5.0675 C   0  0  0  0  0  0  0  0  0  0  0  0
   -2.1019   -3.8473    2.4746 C   0  0  0  0  0  0  0  0  0  0  0  0
   -0.7788   -4.3713    1.9742 C   0  0  0  0  0  0  0  0  0  0  0  0
   -0.7687   -5.8705    1.4753 C   0  0  0  0  0  0  0  0  0  0  0  0
    0.6685   -6.2567    1.1401 C   0  0  0  0  0  0  0  0  0  0  0  0
   -1.1658   -6.8421    2.5206 C   0  0  0  0  0  0  0  0  0  0  0  0
   -1.6467   -6.0143    0.2755 C   0  0  0  0  0  0  0  0  0  0  0  0
   -1.0263   -5.5282   -1.0095 O   0  0  0  0  0  0  0  0  0  0  0  0
   -1.0882   -6.2305   -2.2416 C   0  0  0  0  0  0  0  0  0  0  0  0
   -0.4087   -5.6516   -3.4592 C   0  0  0  0  0  0  0  0  0  0  0  0
    0.3166   -4.4589   -3.1430 N   0  0  0  0  0  0  0  0  0  0  0  0
    1.0201   -3.8556   -4.1779 N   0  0  0  0  0  0  0  0  0  0  0  0
    0.8483   -2.5301   -4.4667 C   0  0  0  0  0  0  0  0  0  0  0  0
   -0.1058   -1.7200   -3.6322 C   0  0  0  0  0  0  0  0  0  0  0  0
    0.3285   -0.3402   -3.5004 N   0  0  0  0  0  0  0  0  0  0  0  0
    1.0414    0.1044   -2.4632 C   0  0  0  0  0  0  0  0  0  0  0  0
    1.2723    1.5710   -2.3727 C   0  0  0  0  0  0  0  0  0  0  0  0
    2.6064    2.0969   -2.9278 C   0  0  0  0  0  0  0  0  0  0  0  0
    2.5659    3.5093   -3.3670 C   0  0  0  0  0  0  0  0  0  0  0  0
    3.3938    1.1798   -3.7680 C   0  0  0  0  0  0  0  0  0  0  0  0
    1.1142    1.9283   -0.9769 N   0  0  0  0  0  0  0  0  0  0  0  0
   -0.1472    2.1270   -0.5204 C   0  0  0  0  0  0  0  0  0  0  0  0
   -0.5098    2.4139    0.9016 C   0  0  0  0  0  0  0  0  0  0  0  0
   -1.4673    1.3424    1.3628 C   0  0  0  0  0  0  0  0  0  0  0  0
   -1.8062    1.5532    2.7693 C   0  0  0  0  0  0  0  0  0  0  0  0
   -2.3016    2.9267    2.9221 N   0  0  0  0  0  0  0  0  0  0  0  0
   -3.4966    3.1388    3.4866 C   0  0  0  0  0  0  0  0  0  0  0  0
   -4.1091    4.3737    3.3664 C   0  0  0  0  0  0  0  0  0  0  0  0
   -4.6263    5.4086    3.3118 C   0  0  0  0  0  0  0  0  0  0  0  0
   -5.1048    6.7087    3.0981 C   0  0  0  0  0  0  0  0  0  0  0  0
   -4.0420    7.5323    2.6417 N   0  0  0  0  0  0  0  0  0  0  0  0
   -3.3596    8.4079    3.4995 C   0  0  0  0  0  0  0  0  0  0  0  0
   -3.6281    7.4679    1.3013 C   0  0  0  0  0  0  0  0  0  0  0  0
   -5.6917    7.2541    4.3763 C   0  0  0  0  0  0  0  0  0  0  0  0
   -6.2075    6.7327    2.0587 C   0  0  0  0  0  0  0  0  0  0  0  0
   -4.0638    2.2153    4.0783 O   0  0  0  0  0  0  0  0  0  0  0  0
   -1.4867    4.0088    2.4305 C   0  0  0  0  0  0  0  0  0  0  0  0
   -1.1061    3.8006    1.0244 C   0  0  0  0  0  0  0  0  0  0  0  0
   -1.0806    2.0547   -1.3455 O   0  0  0  0  0  0  0  0  0  0  0  0
    2.3032    1.9662   -0.1113 C   0  0  0  0  0  0  0  0  0  0  0  0
    1.3719   -0.6760   -1.5867 O   0  0  0  0  0  0  0  0  0  0  0  0
   -1.5319   -1.7363   -4.2987 C   0  0  0  0  0  0  0  0  0  0  0  0
   -2.6385   -1.1003   -3.4188 C   0  0  0  0  0  0  0  0  0  0  0  0
   -2.9504   -2.0864   -2.3432 C   0  0  0  0  0  0  0  0  0  0  0  0
   -4.0373   -1.6501   -1.5092 N   0  0  0  0  0  0  0  0  0  0  0  0
   -5.2429   -1.2225   -2.2260 C   0  0  0  0  0  0  0  0  0  0  0  0
   -4.9000   -0.3454   -3.4374 C   0  0  0  0  0  0  0  0  0  0  0  0
   -3.8116   -0.9100   -4.2456 O   0  0  0  0  0  0  0  0  0  0  0  0
    1.4249   -1.9964   -5.4264 O   0  0  0  0  0  0  0  0  0  0  0  0
    1.9894   -4.6936   -4.8823 C   0  0  0  0  0  0  0  0  0  0  0  0
    1.3284   -6.0228   -5.2799 C   0  0  0  0  0  0  0  0  0  0  0  0
    0.5673   -6.6668   -4.1256 C   0  0  0  0  0  0  0  0  0  0  0  0
   -1.6697   -7.3192   -2.4103 O   0  0  0  0  0  0  0  0  0  0  0  0
   -3.0449   -3.1274    1.7131 C   0  0  0  0  0  0  0  0  0  0  0  0
   -4.0579   -2.6984    2.5639 C   0  0  0  0  0  0  0  0  0  0  0  0
   -5.1181   -1.8882    2.0393 C   0  0  0  0  0  0  0  0  0  0  0  0
   -5.0788   -1.5707    0.6817 C   0  0  0  0  0  0  0  0  0  0  0  0
   -4.0565   -2.0105   -0.1552 C   0  0  0  0  0  0  0  0  0  0  0  0
   -3.0127   -2.8031    0.3601 C   0  0  0  0  0  0  0  0  0  0  0  0
    0.5527    2.3960    1.7451 F   0  0  0  0  0  0  0  0  0  0  0  0
  1  2  1  0  0  0  0
  2  3  1  0  0  0  0
  2  5  1  0  0  0  0
  3  4  1  0  0  0  0
  5  6  4  0  0  0  0
  5 10  4  0  0  0  0
  6  7  4  0  0  0  0
  7  8  4  0  0  0  0
  8  9  4  0  0  0  0
  9 10  4  0  0  0  0
 10 11  1  0  0  0  0
 11 12  4  0  0  0  0
 11 15  4  0  0  0  0
 12 13  1  0  0  0  0
 12 68  4  0  0  0  0
 13 14  1  0  0  0  0
 15 16  1  0  0  0  0
 15 67  4  0  0  0  0
 16 17  1  0  0  0  0
 17 18  1  0  0  0  0
 17 19  1  0  0  0  0
 17 20  1  0  0  0  0
 20 21  1  0  0  0  0
 21 22  1  0  0  0  0
 22 23  1  0  0  0  0
 22 66  2  0  0  0  0
 23 24  1  0  0  0  0
 23 65  1  0  0  0  0
 24 25  1  0  0  0  0
 25 26  1  0  0  0  0
 25 63  1  0  0  0  0
 26 27  1  0  0  0  0
 26 62  2  0  0  0  0
 27 28  1  0  0  0  0
 27 55  1  0  0  0  0
 28 29  1  0  0  0  0
 29 30  1  0  0  0  0
 29 54  2  0  0  0  0
 30 31  1  0  0  0  0
 30 34  1  0  0  0  0
 31 32  1  0  0  0  0
 31 33  1  0  0  0  0
 34 35  1  0  0  0  0
 34 53  1  0  0  0  0
 35 36  1  0  0  0  0
 35 52  2  0  0  0  0
 36 37  1  0  0  0  0
 36 51  1  0  0  0  0
 36 73  1  0  0  0  0
 37 38  1  0  0  0  0
 38 39  1  0  0  0  0
 39 40  1  0  0  0  0
 39 50  1  0  0  0  0
 40 41  1  0  0  0  0
 40 49  2  0  0  0  0
 41 42  1  0  0  0  0
 42 43  1  0  0  0  0
 43 44  1  0  0  0  0
 43 47  1  0  0  0  0
 43 48  1  0  0  0  0
 44 45  1  0  0  0  0
 44 46  1  0  0  0  0
 50 51  1  0  0  0  0
 55 56  1  0  0  0  0
 56 57  1  0  0  0  0
 56 61  1  0  0  0  0
 57 58  1  0  0  0  0
 58 59  1  0  0  0  0
 58 71  1  0  0  0  0
 59 60  1  0  0  0  0
 60 61  1  0  0  0  0
 63 64  1  0  0  0  0
 64 65  1  0  0  0  0
 67 68  4  0  0  0  0
 67 72  4  0  0  0  0
 68 69  4  0  0  0  0
 69 70  4  0  0  0  0
 70 71  4  0  0  0  0
 71 72  4  0  0  0  0
M  END
$$$$
