mol_ETKDG4_229
  PyMOL3.1          3D                             0

 73 79  0  0  0  0  0  0  0  0999 V2000
   -3.8818    2.1231    2.5751 C   0  0  0  0  0  0  0  0  0  0  0  0
   -3.2364    3.3102    1.9960 C   0  0  0  0  0  0  0  0  0  0  0  0
   -2.5833    4.1708    2.9265 O   0  0  0  0  0  0  0  0  0  0  0  0
   -1.3992    3.6847    3.5174 C   0  0  0  0  0  0  0  0  0  0  0  0
   -4.1808    4.1386    1.2281 C   0  0  0  0  0  0  0  0  0  0  0  0
   -5.1616    4.7302    1.8953 N   0  0  0  0  0  0  0  0  0  0  0  0
   -6.0603    5.5242    1.2693 C   0  0  0  0  0  0  0  0  0  0  0  0
   -6.0198    5.7226   -0.1146 C   0  0  0  0  0  0  0  0  0  0  0  0
   -4.9956    5.1021   -0.8327 C   0  0  0  0  0  0  0  0  0  0  0  0
   -4.0780    4.2856   -0.1479 C   0  0  0  0  0  0  0  0  0  0  0  0
   -3.0311    3.6626   -0.9199 C   0  0  0  0  0  0  0  0  0  0  0  0
   -1.9212    4.3344   -1.2937 N   0  0  0  0  0  0  0  0  0  0  0  0
   -1.5307    5.7427   -0.9299 C   0  0  0  0  0  0  0  0  0  0  0  0
   -1.6484    6.6972   -2.0359 C   0  0  0  0  0  0  0  0  0  0  0  0
   -2.9616    2.3054   -1.3492 C   0  0  0  0  0  0  0  0  0  0  0  0
   -3.8141    1.1078   -1.0250 C   0  0  0  0  0  0  0  0  0  0  0  0
   -5.0771    0.8460   -1.9342 C   0  0  0  0  0  0  0  0  0  0  0  0
   -5.7839   -0.3960   -1.4131 C   0  0  0  0  0  0  0  0  0  0  0  0
   -6.0797    1.9377   -1.8147 C   0  0  0  0  0  0  0  0  0  0  0  0
   -4.7037    0.6525   -3.3715 C   0  0  0  0  0  0  0  0  0  0  0  0
   -4.3334   -0.7327   -3.8369 O   0  0  0  0  0  0  0  0  0  0  0  0
   -4.6275   -1.2379   -5.1457 C   0  0  0  0  0  0  0  0  0  0  0  0
   -4.1483   -2.6255   -5.5182 C   0  0  0  0  0  0  0  0  0  0  0  0
   -3.5904   -3.2940   -4.3787 N   0  0  0  0  0  0  0  0  0  0  0  0
   -3.1348   -4.5972   -4.5584 N   0  0  0  0  0  0  0  0  0  0  0  0
   -1.8518   -4.9482   -4.2382 C   0  0  0  0  0  0  0  0  0  0  0  0
   -0.9269   -3.8802   -3.7239 C   0  0  0  0  0  0  0  0  0  0  0  0
    0.0666   -4.3967   -2.8075 N   0  0  0  0  0  0  0  0  0  0  0  0
    0.0341   -4.1855   -1.4879 C   0  0  0  0  0  0  0  0  0  0  0  0
    1.2503   -4.5749   -0.7134 C   0  0  0  0  0  0  0  0  0  0  0  0
    1.2000   -5.9536   -0.0013 C   0  0  0  0  0  0  0  0  0  0  0  0
    0.1195   -6.8577   -0.3941 C   0  0  0  0  0  0  0  0  0  0  0  0
    2.5540   -6.6025    0.0971 C   0  0  0  0  0  0  0  0  0  0  0  0
    1.4944   -3.4776    0.2256 N   0  0  0  0  0  0  0  0  0  0  0  0
    2.1295   -2.3453   -0.2372 C   0  0  0  0  0  0  0  0  0  0  0  0
    2.3591   -1.0960    0.5757 C   0  0  0  0  0  0  0  0  0  0  0  0
    1.0932   -0.2708    0.4765 C   0  0  0  0  0  0  0  0  0  0  0  0
    1.1950    0.9895    1.2686 C   0  0  0  0  0  0  0  0  0  0  0  0
    2.3930    1.7318    0.8517 N   0  0  0  0  0  0  0  0  0  0  0  0
    2.3101    3.0461    0.4803 C   0  0  0  0  0  0  0  0  0  0  0  0
    3.3664    3.6650   -0.1635 C   0  0  0  0  0  0  0  0  0  0  0  0
    4.1873    4.2861   -0.6976 C   0  0  0  0  0  0  0  0  0  0  0  0
    5.2520    4.8962   -1.3860 C   0  0  0  0  0  0  0  0  0  0  0  0
    4.7667    5.8777   -2.2833 N   0  0  0  0  0  0  0  0  0  0  0  0
    3.8312    6.8261   -1.8323 C   0  0  0  0  0  0  0  0  0  0  0  0
    5.2645    6.0497   -3.5802 C   0  0  0  0  0  0  0  0  0  0  0  0
    6.2082    5.5452   -0.3825 C   0  0  0  0  0  0  0  0  0  0  0  0
    6.0455    3.8458   -2.1100 C   0  0  0  0  0  0  0  0  0  0  0  0
    1.2895    3.6973    0.6913 O   0  0  0  0  0  0  0  0  0  0  0  0
    3.6342    1.0065    0.8472 C   0  0  0  0  0  0  0  0  0  0  0  0
    3.5480   -0.2596    0.0777 C   0  0  0  0  0  0  0  0  0  0  0  0
    2.5133   -2.3492   -1.4259 O   0  0  0  0  0  0  0  0  0  0  0  0
    0.9302   -3.5666    1.5871 C   0  0  0  0  0  0  0  0  0  0  0  0
   -0.8965   -3.5710   -0.9903 O   0  0  0  0  0  0  0  0  0  0  0  0
   -0.1672   -3.2124   -4.9384 C   0  0  0  0  0  0  0  0  0  0  0  0
    0.7458   -2.0301   -4.5453 C   0  0  0  0  0  0  0  0  0  0  0  0
   -0.1323   -0.8406   -4.3813 C   0  0  0  0  0  0  0  0  0  0  0  0
    0.6367    0.3438   -4.1044 N   0  0  0  0  0  0  0  0  0  0  0  0
    1.7201    0.6064   -5.0724 C   0  0  0  0  0  0  0  0  0  0  0  0
    2.5396   -0.6625   -5.3268 C   0  0  0  0  0  0  0  0  0  0  0  0
    1.6741   -1.8021   -5.6351 O   0  0  0  0  0  0  0  0  0  0  0  0
   -1.4236   -6.0963   -4.4141 O   0  0  0  0  0  0  0  0  0  0  0  0
   -4.1325   -5.5482   -5.0469 C   0  0  0  0  0  0  0  0  0  0  0  0
   -4.8050   -4.9654   -6.3099 C   0  0  0  0  0  0  0  0  0  0  0  0
   -5.2779   -3.5178   -6.1052 C   0  0  0  0  0  0  0  0  0  0  0  0
   -5.2636   -0.6165   -6.0167 O   0  0  0  0  0  0  0  0  0  0  0  0
   -1.7697    2.2565   -2.0862 C   0  0  0  0  0  0  0  0  0  0  0  0
   -1.1620    3.5047   -2.0164 C   0  0  0  0  0  0  0  0  0  0  0  0
    0.1084    3.7083   -2.6442 C   0  0  0  0  0  0  0  0  0  0  0  0
    0.6722    2.6277   -3.3103 C   0  0  0  0  0  0  0  0  0  0  0  0
    0.0406    1.3893   -3.3972 C   0  0  0  0  0  0  0  0  0  0  0  0
   -1.1937    1.1825   -2.7510 C   0  0  0  0  0  0  0  0  0  0  0  0
    2.6720   -1.3955    1.8819 F   0  0  0  0  0  0  0  0  0  0  0  0
  1  2  1  0  0  0  0
  2  3  1  0  0  0  0
  2  5  1  0  0  0  0
  3  4  1  0  0  0  0
  5  6  4  0  0  0  0
  5 10  4  0  0  0  0
  6  7  4  0  0  0  0
  7  8  4  0  0  0  0
  8  9  4  0  0  0  0
  9 10  4  0  0  0  0
 10 11  1  0  0  0  0
 11 12  4  0  0  0  0
 11 15  4  0  0  0  0
 12 13  1  0  0  0  0
 12 68  4  0  0  0  0
 13 14  1  0  0  0  0
 15 16  1  0  0  0  0
 15 67  4  0  0  0  0
 16 17  1  0  0  0  0
 17 18  1  0  0  0  0
 17 19  1  0  0  0  0
 17 20  1  0  0  0  0
 20 21  1  0  0  0  0
 21 22  1  0  0  0  0
 22 23  1  0  0  0  0
 22 66  2  0  0  0  0
 23 24  1  0  0  0  0
 23 65  1  0  0  0  0
 24 25  1  0  0  0  0
 25 26  1  0  0  0  0
 25 63  1  0  0  0  0
 26 27  1  0  0  0  0
 26 62  2  0  0  0  0
 27 28  1  0  0  0  0
 27 55  1  0  0  0  0
 28 29  1  0  0  0  0
 29 30  1  0  0  0  0
 29 54  2  0  0  0  0
 30 31  1  0  0  0  0
 30 34  1  0  0  0  0
 31 32  1  0  0  0  0
 31 33  1  0  0  0  0
 34 35  1  0  0  0  0
 34 53  1  0  0  0  0
 35 36  1  0  0  0  0
 35 52  2  0  0  0  0
 36 37  1  0  0  0  0
 36 51  1  0  0  0  0
 36 73  1  0  0  0  0
 37 38  1  0  0  0  0
 38 39  1  0  0  0  0
 39 40  1  0  0  0  0
 39 50  1  0  0  0  0
 40 41  1  0  0  0  0
 40 49  2  0  0  0  0
 41 42  1  0  0  0  0
 42 43  1  0  0  0  0
 43 44  1  0  0  0  0
 43 47  1  0  0  0  0
 43 48  1  0  0  0  0
 44 45  1  0  0  0  0
 44 46  1  0  0  0  0
 50 51  1  0  0  0  0
 55 56  1  0  0  0  0
 56 57  1  0  0  0  0
 56 61  1  0  0  0  0
 57 58  1  0  0  0  0
 58 59  1  0  0  0  0
 58 71  1  0  0  0  0
 59 60  1  0  0  0  0
 60 61  1  0  0  0  0
 63 64  1  0  0  0  0
 64 65  1  0  0  0  0
 67 68  4  0  0  0  0
 67 72  4  0  0  0  0
 68 69  4  0  0  0  0
 69 70  4  0  0  0  0
 70 71  4  0  0  0  0
 71 72  4  0  0  0  0
M  END
$$$$
