mol_ETKDG5_255
  PyMOL3.1          3D                             0

 73 79  0  0  0  0  0  0  0  0999 V2000
    0.9343    4.0430    6.4932 C   0  0  0  0  0  0  0  0  0  0  0  0
    0.3079    4.5844    5.2658 C   0  0  0  0  0  0  0  0  0  0  0  0
   -0.8194    5.4328    5.4882 O   0  0  0  0  0  0  0  0  0  0  0  0
   -2.0710    4.8017    5.5795 C   0  0  0  0  0  0  0  0  0  0  0  0
    1.2574    5.3410    4.4188 C   0  0  0  0  0  0  0  0  0  0  0  0
    1.5177    6.5962    4.7420 N   0  0  0  0  0  0  0  0  0  0  0  0
    2.4032    7.3371    4.0379 C   0  0  0  0  0  0  0  0  0  0  0  0
    3.0893    6.8110    2.9383 C   0  0  0  0  0  0  0  0  0  0  0  0
    2.8369    5.4817    2.5791 C   0  0  0  0  0  0  0  0  0  0  0  0
    1.8928    4.7549    3.3255 C   0  0  0  0  0  0  0  0  0  0  0  0
    1.6165    3.4056    2.9142 C   0  0  0  0  0  0  0  0  0  0  0  0
    2.4068    2.3431    3.2361 N   0  0  0  0  0  0  0  0  0  0  0  0
    3.6509    2.3286    4.0829 C   0  0  0  0  0  0  0  0  0  0  0  0
    4.8896    2.3005    3.2864 C   0  0  0  0  0  0  0  0  0  0  0  0
    0.4730    2.9781    2.1853 C   0  0  0  0  0  0  0  0  0  0  0  0
   -0.7589    3.7041    1.7260 C   0  0  0  0  0  0  0  0  0  0  0  0
   -0.7182    4.4689    0.3399 C   0  0  0  0  0  0  0  0  0  0  0  0
    0.1486    5.7173    0.4034 C   0  0  0  0  0  0  0  0  0  0  0  0
   -2.1169    4.9795    0.0913 C   0  0  0  0  0  0  0  0  0  0  0  0
   -0.2643    3.6130   -0.8546 C   0  0  0  0  0  0  0  0  0  0  0  0
   -1.3732    2.8539   -1.5300 O   0  0  0  0  0  0  0  0  0  0  0  0
   -1.5703    2.7545   -2.9314 C   0  0  0  0  0  0  0  0  0  0  0  0
   -2.7965    2.0016   -3.4382 C   0  0  0  0  0  0  0  0  0  0  0  0
   -3.7412    1.8735   -2.3752 N   0  0  0  0  0  0  0  0  0  0  0  0
   -4.9641    1.2762   -2.6401 N   0  0  0  0  0  0  0  0  0  0  0  0
   -5.4253    0.2504   -1.8616 C   0  0  0  0  0  0  0  0  0  0  0  0
   -4.5805   -0.2338   -0.7179 C   0  0  0  0  0  0  0  0  0  0  0  0
   -5.3762   -0.4735    0.4726 N   0  0  0  0  0  0  0  0  0  0  0  0
   -5.3958    0.3741    1.5260 C   0  0  0  0  0  0  0  0  0  0  0  0
   -6.1748   -0.0680    2.7266 C   0  0  0  0  0  0  0  0  0  0  0  0
   -7.5947    0.5754    2.8518 C   0  0  0  0  0  0  0  0  0  0  0  0
   -8.4637   -0.1433    3.8333 C   0  0  0  0  0  0  0  0  0  0  0  0
   -8.2675    0.8249    1.5447 C   0  0  0  0  0  0  0  0  0  0  0  0
   -5.3461    0.2329    3.9000 N   0  0  0  0  0  0  0  0  0  0  0  0
   -4.3758   -0.6702    4.2683 C   0  0  0  0  0  0  0  0  0  0  0  0
   -3.4009   -0.4539    5.3987 C   0  0  0  0  0  0  0  0  0  0  0  0
   -2.3123    0.4588    4.8678 C   0  0  0  0  0  0  0  0  0  0  0  0
   -1.3211    0.7817    5.9141 C   0  0  0  0  0  0  0  0  0  0  0  0
   -0.7761   -0.4563    6.4756 N   0  0  0  0  0  0  0  0  0  0  0  0
    0.5769   -0.6170    6.5590 C   0  0  0  0  0  0  0  0  0  0  0  0
    1.1244   -1.8370    6.8914 C   0  0  0  0  0  0  0  0  0  0  0  0
    1.7171   -2.7841    7.1571 C   0  0  0  0  0  0  0  0  0  0  0  0
    2.3276   -4.0120    7.4409 C   0  0  0  0  0  0  0  0  0  0  0  0
    3.7007   -3.9581    7.0773 N   0  0  0  0  0  0  0  0  0  0  0  0
    4.2908   -4.8873    6.2161 C   0  0  0  0  0  0  0  0  0  0  0  0
    4.5345   -2.9284    7.5848 C   0  0  0  0  0  0  0  0  0  0  0  0
    1.5904   -5.1085    6.6964 C   0  0  0  0  0  0  0  0  0  0  0  0
    2.2104   -4.3373    8.9265 C   0  0  0  0  0  0  0  0  0  0  0  0
    1.3404    0.3215    6.3053 O   0  0  0  0  0  0  0  0  0  0  0  0
   -1.7195   -1.4572    6.9127 C   0  0  0  0  0  0  0  0  0  0  0  0
   -2.7523   -1.7538    5.9012 C   0  0  0  0  0  0  0  0  0  0  0  0
   -4.2798   -1.7179    3.5996 O   0  0  0  0  0  0  0  0  0  0  0  0
   -5.4939    1.5464    4.5585 C   0  0  0  0  0  0  0  0  0  0  0  0
   -4.7092    1.3877    1.5098 O   0  0  0  0  0  0  0  0  0  0  0  0
   -3.8046   -1.5404   -1.1270 C   0  0  0  0  0  0  0  0  0  0  0  0
   -2.8230   -2.0768   -0.0453 C   0  0  0  0  0  0  0  0  0  0  0  0
   -1.6548   -1.1581   -0.0107 C   0  0  0  0  0  0  0  0  0  0  0  0
   -0.6225   -1.6190    0.8885 N   0  0  0  0  0  0  0  0  0  0  0  0
   -0.1880   -3.0117    0.6732 C   0  0  0  0  0  0  0  0  0  0  0  0
   -1.4085   -3.9401    0.5257 C   0  0  0  0  0  0  0  0  0  0  0  0
   -2.3826   -3.4042   -0.4458 O   0  0  0  0  0  0  0  0  0  0  0  0
   -6.5100   -0.3078   -2.0978 O   0  0  0  0  0  0  0  0  0  0  0  0
   -5.7404    1.8562   -3.7387 C   0  0  0  0  0  0  0  0  0  0  0  0
   -4.8356    2.0365   -4.9735 C   0  0  0  0  0  0  0  0  0  0  0  0
   -3.4999    2.7094   -4.6375 C   0  0  0  0  0  0  0  0  0  0  0  0
   -0.7919    3.2367   -3.7748 O   0  0  0  0  0  0  0  0  0  0  0  0
    0.6684    1.5980    2.0552 C   0  0  0  0  0  0  0  0  0  0  0  0
    1.8527    1.2465    2.7112 C   0  0  0  0  0  0  0  0  0  0  0  0
    2.2520   -0.1290    2.7530 C   0  0  0  0  0  0  0  0  0  0  0  0
    1.4040   -1.0555    2.1325 C   0  0  0  0  0  0  0  0  0  0  0  0
    0.2173   -0.6713    1.4867 C   0  0  0  0  0  0  0  0  0  0  0  0
   -0.1561    0.6738    1.4433 C   0  0  0  0  0  0  0  0  0  0  0  0
   -4.0319    0.0824    6.5025 F   0  0  0  0  0  0  0  0  0  0  0  0
  1  2  1  0  0  0  0
  2  3  1  0  0  0  0
  2  5  1  0  0  0  0
  3  4  1  0  0  0  0
  5  6  4  0  0  0  0
  5 10  4  0  0  0  0
  6  7  4  0  0  0  0
  7  8  4  0  0  0  0
  8  9  4  0  0  0  0
  9 10  4  0  0  0  0
 10 11  1  0  0  0  0
 11 12  4  0  0  0  0
 11 15  4  0  0  0  0
 12 13  1  0  0  0  0
 12 68  4  0  0  0  0
 13 14  1  0  0  0  0
 15 16  1  0  0  0  0
 15 67  4  0  0  0  0
 16 17  1  0  0  0  0
 17 18  1  0  0  0  0
 17 19  1  0  0  0  0
 17 20  1  0  0  0  0
 20 21  1  0  0  0  0
 21 22  1  0  0  0  0
 22 23  1  0  0  0  0
 22 66  2  0  0  0  0
 23 24  1  0  0  0  0
 23 65  1  0  0  0  0
 24 25  1  0  0  0  0
 25 26  1  0  0  0  0
 25 63  1  0  0  0  0
 26 27  1  0  0  0  0
 26 62  2  0  0  0  0
 27 28  1  0  0  0  0
 27 55  1  0  0  0  0
 28 29  1  0  0  0  0
 29 30  1  0  0  0  0
 29 54  2  0  0  0  0
 30 31  1  0  0  0  0
 30 34  1  0  0  0  0
 31 32  1  0  0  0  0
 31 33  1  0  0  0  0
 34 35  1  0  0  0  0
 34 53  1  0  0  0  0
 35 36  1  0  0  0  0
 35 52  2  0  0  0  0
 36 37  1  0  0  0  0
 36 51  1  0  0  0  0
 36 73  1  0  0  0  0
 37 38  1  0  0  0  0
 38 39  1  0  0  0  0
 39 40  1  0  0  0  0
 39 50  1  0  0  0  0
 40 41  1  0  0  0  0
 40 49  2  0  0  0  0
 41 42  1  0  0  0  0
 42 43  1  0  0  0  0
 43 44  1  0  0  0  0
 43 47  1  0  0  0  0
 43 48  1  0  0  0  0
 44 45  1  0  0  0  0
 44 46  1  0  0  0  0
 50 51  1  0  0  0  0
 55 56  1  0  0  0  0
 56 57  1  0  0  0  0
 56 61  1  0  0  0  0
 57 58  1  0  0  0  0
 58 59  1  0  0  0  0
 58 71  1  0  0  0  0
 59 60  1  0  0  0  0
 60 61  1  0  0  0  0
 63 64  1  0  0  0  0
 64 65  1  0  0  0  0
 67 68  4  0  0  0  0
 67 72  4  0  0  0  0
 68 69  4  0  0  0  0
 69 70  4  0  0  0  0
 70 71  4  0  0  0  0
 71 72  4  0  0  0  0
M  END
$$$$
