mol_bioactive_10
  PyMOL3.1          3D                             0

 73 79  0  0  0  0  0  0  0  0999 V2000
    6.0787    0.0420   -2.8619 C   0  0  0  0  0  0  0  0  0  0  0  0
    5.9521    0.7727   -1.5674 C   0  0  0  0  0  0  0  0  0  0  0  0
    4.8126    0.4465   -0.8073 O   0  0  0  0  0  0  0  0  0  0  0  0
    4.7242   -0.8858   -0.3102 C   0  0  0  0  0  0  0  0  0  0  0  0
    6.0008    2.2363   -1.6458 C   0  0  0  0  0  0  0  0  0  0  0  0
    7.1401    2.5884   -1.0811 N   0  0  0  0  0  0  0  0  0  0  0  0
    7.5418    3.8437   -1.0319 C   0  0  0  0  0  0  0  0  0  0  0  0
    6.7999    4.8584   -1.5905 C   0  0  0  0  0  0  0  0  0  0  0  0
    5.5886    4.5354   -2.2127 C   0  0  0  0  0  0  0  0  0  0  0  0
    5.1529    3.2161   -2.2162 C   0  0  0  0  0  0  0  0  0  0  0  0
    3.8551    2.9401   -2.8194 C   0  0  0  0  0  0  0  0  0  0  0  0
    3.6741    2.7804   -4.1596 N   0  0  0  0  0  0  0  0  0  0  0  0
    4.7275    2.7829   -5.2330 C   0  0  0  0  0  0  0  0  0  0  0  0
    4.7442    4.0161   -6.0283 C   0  0  0  0  0  0  0  0  0  0  0  0
    2.5971    2.8088   -2.1326 C   0  0  0  0  0  0  0  0  0  0  0  0
    2.2324    2.8197   -0.6571 C   0  0  0  0  0  0  0  0  0  0  0  0
    1.9260    4.2580   -0.0200 C   0  0  0  0  0  0  0  0  0  0  0  0
    1.7790    4.0699    1.4883 C   0  0  0  0  0  0  0  0  0  0  0  0
    3.0663    5.1967   -0.1740 C   0  0  0  0  0  0  0  0  0  0  0  0
    0.6577    4.9108   -0.5871 C   0  0  0  0  0  0  0  0  0  0  0  0
   -0.6619    4.5163    0.0161 O   0  0  0  0  0  0  0  0  0  0  0  0
   -1.7080    5.4368    0.3695 C   0  0  0  0  0  0  0  0  0  0  0  0
   -3.0185    4.8726    0.9155 C   0  0  0  0  0  0  0  0  0  0  0  0
   -2.8772    3.4812    1.2051 N   0  0  0  0  0  0  0  0  0  0  0  0
   -3.9725    2.7975    1.7162 N   0  0  0  0  0  0  0  0  0  0  0  0
   -4.4366    1.6573    1.1001 C   0  0  0  0  0  0  0  0  0  0  0  0
   -3.7496    1.1903   -0.1567 C   0  0  0  0  0  0  0  0  0  0  0  0
   -3.5865   -0.2587   -0.1872 N   0  0  0  0  0  0  0  0  0  0  0  0
   -2.4851   -0.9141    0.2083 C   0  0  0  0  0  0  0  0  0  0  0  0
   -2.4816   -2.3878   -0.0527 C   0  0  0  0  0  0  0  0  0  0  0  0
   -2.7584   -3.2748    1.2120 C   0  0  0  0  0  0  0  0  0  0  0  0
   -2.9816   -4.7188    0.8612 C   0  0  0  0  0  0  0  0  0  0  0  0
   -3.8675   -2.7327    2.0732 C   0  0  0  0  0  0  0  0  0  0  0  0
   -1.2112   -2.7039   -0.7162 N   0  0  0  0  0  0  0  0  0  0  0  0
   -1.0975   -2.4809   -2.0775 C   0  0  0  0  0  0  0  0  0  0  0  0
    0.1548   -2.7305   -2.8918 C   0  0  0  0  0  0  0  0  0  0  0  0
    1.1572   -1.6387   -2.5796 C   0  0  0  0  0  0  0  0  0  0  0  0
    2.4239   -1.8264   -3.3405 C   0  0  0  0  0  0  0  0  0  0  0  0
    2.1458   -1.9453   -4.7834 N   0  0  0  0  0  0  0  0  0  0  0  0
    2.8559   -1.2082   -5.7008 C   0  0  0  0  0  0  0  0  0  0  0  0
    2.5161   -1.2028   -7.0523 C   0  0  0  0  0  0  0  0  0  0  0  0
    2.3879   -1.1814   -8.2153 C   0  0  0  0  0  0  0  0  0  0  0  0
    2.0881   -1.3004   -9.5869 C   0  0  0  0  0  0  0  0  0  0  0  0
    2.8612   -2.3780  -10.1351 N   0  0  0  0  0  0  0  0  0  0  0  0
    2.3754   -3.6997  -10.0849 C   0  0  0  0  0  0  0  0  0  0  0  0
    4.2081   -2.1960  -10.5144 C   0  0  0  0  0  0  0  0  0  0  0  0
    2.3883   -0.0102  -10.3152 C   0  0  0  0  0  0  0  0  0  0  0  0
    0.6028   -1.5646   -9.7775 C   0  0  0  0  0  0  0  0  0  0  0  0
    3.8105   -0.5192   -5.3403 O   0  0  0  0  0  0  0  0  0  0  0  0
    1.1153   -2.8645   -5.1706 C   0  0  0  0  0  0  0  0  0  0  0  0
   -0.1241   -2.7116   -4.4021 C   0  0  0  0  0  0  0  0  0  0  0  0
   -2.0973   -2.0423   -2.6644 O   0  0  0  0  0  0  0  0  0  0  0  0
   -0.0666   -3.1375    0.1049 C   0  0  0  0  0  0  0  0  0  0  0  0
   -1.5157   -0.3144    0.6339 O   0  0  0  0  0  0  0  0  0  0  0  0
   -4.5595    1.6537   -1.4273 C   0  0  0  0  0  0  0  0  0  0  0  0
   -3.9034    1.9597   -2.8122 C   0  0  0  0  0  0  0  0  0  0  0  0
   -2.4321    1.8861   -2.8239 C   0  0  0  0  0  0  0  0  0  0  0  0
   -1.8067    1.9230   -4.1354 N   0  0  0  0  0  0  0  0  0  0  0  0
   -2.6127    1.7990   -5.3052 C   0  0  0  0  0  0  0  0  0  0  0  0
   -4.0192    1.3611   -5.1318 C   0  0  0  0  0  0  0  0  0  0  0  0
   -4.4935    1.0809   -3.7936 O   0  0  0  0  0  0  0  0  0  0  0  0
   -5.4309    1.0456    1.5194 O   0  0  0  0  0  0  0  0  0  0  0  0
   -4.5437    3.3381    2.9496 C   0  0  0  0  0  0  0  0  0  0  0  0
   -4.7588    4.8648    2.7929 C   0  0  0  0  0  0  0  0  0  0  0  0
   -3.5351    5.5844    2.2061 C   0  0  0  0  0  0  0  0  0  0  0  0
   -1.6143    6.6609    0.2569 O   0  0  0  0  0  0  0  0  0  0  0  0
    1.6770    2.5763   -3.1677 C   0  0  0  0  0  0  0  0  0  0  0  0
    2.3648    2.5717   -4.3830 C   0  0  0  0  0  0  0  0  0  0  0  0
    1.6281    2.3312   -5.5913 C   0  0  0  0  0  0  0  0  0  0  0  0
    0.2490    2.1156   -5.4773 C   0  0  0  0  0  0  0  0  0  0  0  0
   -0.4218    2.1309   -4.2373 C   0  0  0  0  0  0  0  0  0  0  0  0
    0.3100    2.3464   -3.0698 C   0  0  0  0  0  0  0  0  0  0  0  0
    0.6651   -3.9893   -2.6104 F   0  0  0  0  0  0  0  0  0  0  0  0
  1  2  1  0  0  0  0
  2  3  1  0  0  0  0
  2  5  1  0  0  0  0
  3  4  1  0  0  0  0
  5  6  4  0  0  0  0
  5 10  4  0  0  0  0
  6  7  4  0  0  0  0
  7  8  4  0  0  0  0
  8  9  4  0  0  0  0
  9 10  4  0  0  0  0
 10 11  1  0  0  0  0
 11 12  4  0  0  0  0
 11 15  4  0  0  0  0
 12 13  1  0  0  0  0
 12 68  4  0  0  0  0
 13 14  1  0  0  0  0
 15 16  1  0  0  0  0
 15 67  4  0  0  0  0
 16 17  1  0  0  0  0
 17 18  1  0  0  0  0
 17 19  1  0  0  0  0
 17 20  1  0  0  0  0
 20 21  1  0  0  0  0
 21 22  1  0  0  0  0
 22 23  1  0  0  0  0
 22 66  2  0  0  0  0
 23 24  1  0  0  0  0
 23 65  1  0  0  0  0
 24 25  1  0  0  0  0
 25 26  1  0  0  0  0
 25 63  1  0  0  0  0
 26 27  1  0  0  0  0
 26 62  2  0  0  0  0
 27 28  1  0  0  0  0
 27 55  1  0  0  0  0
 28 29  1  0  0  0  0
 29 30  1  0  0  0  0
 29 54  2  0  0  0  0
 30 31  1  0  0  0  0
 30 34  1  0  0  0  0
 31 32  1  0  0  0  0
 31 33  1  0  0  0  0
 34 35  1  0  0  0  0
 34 53  1  0  0  0  0
 35 36  1  0  0  0  0
 35 52  2  0  0  0  0
 36 37  1  0  0  0  0
 36 51  1  0  0  0  0
 36 73  1  0  0  0  0
 37 38  1  0  0  0  0
 38 39  1  0  0  0  0
 39 40  1  0  0  0  0
 39 50  1  0  0  0  0
 40 41  1  0  0  0  0
 40 49  2  0  0  0  0
 41 42  1  0  0  0  0
 42 43  1  0  0  0  0
 43 44  1  0  0  0  0
 43 47  1  0  0  0  0
 43 48  1  0  0  0  0
 44 45  1  0  0  0  0
 44 46  1  0  0  0  0
 50 51  1  0  0  0  0
 55 56  1  0  0  0  0
 56 57  1  0  0  0  0
 56 61  1  0  0  0  0
 57 58  1  0  0  0  0
 58 59  1  0  0  0  0
 58 71  1  0  0  0  0
 59 60  1  0  0  0  0
 60 61  1  0  0  0  0
 63 64  1  0  0  0  0
 64 65  1  0  0  0  0
 67 68  4  0  0  0  0
 67 72  4  0  0  0  0
 68 69  4  0  0  0  0
 69 70  4  0  0  0  0
 70 71  4  0  0  0  0
 71 72  4  0  0  0  0
M  END
$$$$
