mol_ETKDG4_237
  PyMOL3.1          3D                             0

 73 79  0  0  0  0  0  0  0  0999 V2000
    3.3310   -3.6435    3.4134 C   0  0  0  0  0  0  0  0  0  0  0  0
    2.4100   -3.9525    2.2951 C   0  0  0  0  0  0  0  0  0  0  0  0
    1.3746   -4.8565    2.6108 O   0  0  0  0  0  0  0  0  0  0  0  0
    0.3604   -4.3996    3.4591 C   0  0  0  0  0  0  0  0  0  0  0  0
    3.1135   -4.5061    1.1263 C   0  0  0  0  0  0  0  0  0  0  0  0
    3.5653   -5.7454    1.2178 N   0  0  0  0  0  0  0  0  0  0  0  0
    4.2885   -6.3006    0.2301 C   0  0  0  0  0  0  0  0  0  0  0  0
    4.6017   -5.5934   -0.9307 C   0  0  0  0  0  0  0  0  0  0  0  0
    4.1416   -4.2792   -1.0479 C   0  0  0  0  0  0  0  0  0  0  0  0
    3.3607   -3.7455   -0.0136 C   0  0  0  0  0  0  0  0  0  0  0  0
    2.8355   -2.4094   -0.1745 C   0  0  0  0  0  0  0  0  0  0  0  0
    3.5205   -1.2840    0.1617 N   0  0  0  0  0  0  0  0  0  0  0  0
    4.8968   -1.1869    0.7519 C   0  0  0  0  0  0  0  0  0  0  0  0
    5.9106   -0.8465   -0.2534 C   0  0  0  0  0  0  0  0  0  0  0  0
    1.5306   -2.0772   -0.6302 C   0  0  0  0  0  0  0  0  0  0  0  0
    0.3654   -2.9596   -1.0094 C   0  0  0  0  0  0  0  0  0  0  0  0
    0.3185   -3.4356   -2.5224 C   0  0  0  0  0  0  0  0  0  0  0  0
   -0.8525   -4.3908   -2.6779 C   0  0  0  0  0  0  0  0  0  0  0  0
    1.4894   -4.2289   -2.9394 C   0  0  0  0  0  0  0  0  0  0  0  0
    0.1703   -2.2878   -3.4521 C   0  0  0  0  0  0  0  0  0  0  0  0
   -1.2253   -1.8426   -3.7593 O   0  0  0  0  0  0  0  0  0  0  0  0
   -1.5971   -1.2177   -4.9734 C   0  0  0  0  0  0  0  0  0  0  0  0
   -3.0178   -0.7589   -5.1304 C   0  0  0  0  0  0  0  0  0  0  0  0
   -3.7286   -0.8896   -3.8967 N   0  0  0  0  0  0  0  0  0  0  0  0
   -5.0455   -0.4719   -3.8889 N   0  0  0  0  0  0  0  0  0  0  0  0
   -5.4766    0.4566   -2.9825 C   0  0  0  0  0  0  0  0  0  0  0  0
   -4.5028    0.9736   -1.9681 C   0  0  0  0  0  0  0  0  0  0  0  0
   -5.1227    1.2578   -0.6967 N   0  0  0  0  0  0  0  0  0  0  0  0
   -5.1006    0.4109    0.3418 C   0  0  0  0  0  0  0  0  0  0  0  0
   -5.5794    0.9609    1.6427 C   0  0  0  0  0  0  0  0  0  0  0  0
   -7.0048    0.5145    2.0632 C   0  0  0  0  0  0  0  0  0  0  0  0
   -7.6010    1.3613    3.1335 C   0  0  0  0  0  0  0  0  0  0  0  0
   -7.9221    0.2094    0.9377 C   0  0  0  0  0  0  0  0  0  0  0  0
   -4.5752    0.6006    2.6434 N   0  0  0  0  0  0  0  0  0  0  0  0
   -3.4415    1.3608    2.7409 C   0  0  0  0  0  0  0  0  0  0  0  0
   -2.2766    1.0168    3.6229 C   0  0  0  0  0  0  0  0  0  0  0  0
   -1.5677   -0.1216    2.9329 C   0  0  0  0  0  0  0  0  0  0  0  0
   -0.4097   -0.5793    3.6848 C   0  0  0  0  0  0  0  0  0  0  0  0
    0.4916    0.5268    3.9813 N   0  0  0  0  0  0  0  0  0  0  0  0
    1.8228    0.3696    3.7261 C   0  0  0  0  0  0  0  0  0  0  0  0
    2.7527    1.3010    4.1266 C   0  0  0  0  0  0  0  0  0  0  0  0
    3.6373    1.9620    4.4469 C   0  0  0  0  0  0  0  0  0  0  0  0
    4.5318    2.9223    4.9277 C   0  0  0  0  0  0  0  0  0  0  0  0
    4.4624    4.1157    4.1792 N   0  0  0  0  0  0  0  0  0  0  0  0
    4.6824    5.3561    4.7796 C   0  0  0  0  0  0  0  0  0  0  0  0
    4.5789    4.0595    2.7803 C   0  0  0  0  0  0  0  0  0  0  0  0
    5.9699    2.4166    4.9009 C   0  0  0  0  0  0  0  0  0  0  0  0
    4.1775    3.1989    6.3847 C   0  0  0  0  0  0  0  0  0  0  0  0
    2.2338   -0.6437    3.1449 O   0  0  0  0  0  0  0  0  0  0  0  0
   -0.0915    1.7191    4.5395 C   0  0  0  0  0  0  0  0  0  0  0  0
   -1.2843    2.1741    3.8059 C   0  0  0  0  0  0  0  0  0  0  0  0
   -3.3596    2.3743    2.0163 O   0  0  0  0  0  0  0  0  0  0  0  0
   -4.7594   -0.6431    3.4128 C   0  0  0  0  0  0  0  0  0  0  0  0
   -4.5882   -0.6931    0.2344 O   0  0  0  0  0  0  0  0  0  0  0  0
   -3.8065    2.2897   -2.4936 C   0  0  0  0  0  0  0  0  0  0  0  0
   -2.7006    2.8372   -1.5502 C   0  0  0  0  0  0  0  0  0  0  0  0
   -1.4807    2.0140   -1.7785 C   0  0  0  0  0  0  0  0  0  0  0  0
   -0.3465    2.4877   -1.0262 N   0  0  0  0  0  0  0  0  0  0  0  0
   -0.0660    3.9274   -1.1853 C   0  0  0  0  0  0  0  0  0  0  0  0
   -1.3530    4.7558   -1.0646 C   0  0  0  0  0  0  0  0  0  0  0  0
   -2.4264    4.2137   -1.9017 O   0  0  0  0  0  0  0  0  0  0  0  0
   -6.6353    0.9070   -3.0118 O   0  0  0  0  0  0  0  0  0  0  0  0
   -5.9205   -1.1309   -4.8613 C   0  0  0  0  0  0  0  0  0  0  0  0
   -5.2653   -1.0884   -6.2594 C   0  0  0  0  0  0  0  0  0  0  0  0
   -3.7879   -1.5182   -6.2370 C   0  0  0  0  0  0  0  0  0  0  0  0
   -0.8474   -1.0091   -5.9568 O   0  0  0  0  0  0  0  0  0  0  0  0
    1.5080   -0.6687   -0.5812 C   0  0  0  0  0  0  0  0  0  0  0  0
    2.7347   -0.2265   -0.0884 C   0  0  0  0  0  0  0  0  0  0  0  0
    2.9519    1.1759    0.1050 C   0  0  0  0  0  0  0  0  0  0  0  0
    1.8971    2.0404   -0.2052 C   0  0  0  0  0  0  0  0  0  0  0  0
    0.6811    1.5822   -0.7113 C   0  0  0  0  0  0  0  0  0  0  0  0
    0.4712    0.2033   -0.8885 C   0  0  0  0  0  0  0  0  0  0  0  0
   -2.6938    0.7003    4.9023 F   0  0  0  0  0  0  0  0  0  0  0  0
  1  2  1  0  0  0  0
  2  3  1  0  0  0  0
  2  5  1  0  0  0  0
  3  4  1  0  0  0  0
  5  6  4  0  0  0  0
  5 10  4  0  0  0  0
  6  7  4  0  0  0  0
  7  8  4  0  0  0  0
  8  9  4  0  0  0  0
  9 10  4  0  0  0  0
 10 11  1  0  0  0  0
 11 12  4  0  0  0  0
 11 15  4  0  0  0  0
 12 13  1  0  0  0  0
 12 68  4  0  0  0  0
 13 14  1  0  0  0  0
 15 16  1  0  0  0  0
 15 67  4  0  0  0  0
 16 17  1  0  0  0  0
 17 18  1  0  0  0  0
 17 19  1  0  0  0  0
 17 20  1  0  0  0  0
 20 21  1  0  0  0  0
 21 22  1  0  0  0  0
 22 23  1  0  0  0  0
 22 66  2  0  0  0  0
 23 24  1  0  0  0  0
 23 65  1  0  0  0  0
 24 25  1  0  0  0  0
 25 26  1  0  0  0  0
 25 63  1  0  0  0  0
 26 27  1  0  0  0  0
 26 62  2  0  0  0  0
 27 28  1  0  0  0  0
 27 55  1  0  0  0  0
 28 29  1  0  0  0  0
 29 30  1  0  0  0  0
 29 54  2  0  0  0  0
 30 31  1  0  0  0  0
 30 34  1  0  0  0  0
 31 32  1  0  0  0  0
 31 33  1  0  0  0  0
 34 35  1  0  0  0  0
 34 53  1  0  0  0  0
 35 36  1  0  0  0  0
 35 52  2  0  0  0  0
 36 37  1  0  0  0  0
 36 51  1  0  0  0  0
 36 73  1  0  0  0  0
 37 38  1  0  0  0  0
 38 39  1  0  0  0  0
 39 40  1  0  0  0  0
 39 50  1  0  0  0  0
 40 41  1  0  0  0  0
 40 49  2  0  0  0  0
 41 42  1  0  0  0  0
 42 43  1  0  0  0  0
 43 44  1  0  0  0  0
 43 47  1  0  0  0  0
 43 48  1  0  0  0  0
 44 45  1  0  0  0  0
 44 46  1  0  0  0  0
 50 51  1  0  0  0  0
 55 56  1  0  0  0  0
 56 57  1  0  0  0  0
 56 61  1  0  0  0  0
 57 58  1  0  0  0  0
 58 59  1  0  0  0  0
 58 71  1  0  0  0  0
 59 60  1  0  0  0  0
 60 61  1  0  0  0  0
 63 64  1  0  0  0  0
 64 65  1  0  0  0  0
 67 68  4  0  0  0  0
 67 72  4  0  0  0  0
 68 69  4  0  0  0  0
 69 70  4  0  0  0  0
 70 71  4  0  0  0  0
 71 72  4  0  0  0  0
M  END
$$$$
