mol_ETKDG1_79
  PyMOL3.1          3D                             0

 73 79  0  0  0  0  0  0  0  0999 V2000
   -4.2128    5.9349    1.7537 C   0  0  0  0  0  0  0  0  0  0  0  0
   -4.3724    4.8264    0.7815 C   0  0  0  0  0  0  0  0  0  0  0  0
   -4.3070    5.2214   -0.5824 O   0  0  0  0  0  0  0  0  0  0  0  0
   -3.0229    5.5331   -1.0897 C   0  0  0  0  0  0  0  0  0  0  0  0
   -5.6521    4.1093    0.9557 C   0  0  0  0  0  0  0  0  0  0  0  0
   -6.7597    4.7112    0.5634 N   0  0  0  0  0  0  0  0  0  0  0  0
   -7.9718    4.1381    0.7419 C   0  0  0  0  0  0  0  0  0  0  0  0
   -8.1084    2.8860    1.3569 C   0  0  0  0  0  0  0  0  0  0  0  0
   -6.9499    2.2375    1.7872 C   0  0  0  0  0  0  0  0  0  0  0  0
   -5.7133    2.8564    1.5522 C   0  0  0  0  0  0  0  0  0  0  0  0
   -4.5267    2.1471    1.9526 C   0  0  0  0  0  0  0  0  0  0  0  0
   -4.0412    2.1711    3.2106 N   0  0  0  0  0  0  0  0  0  0  0  0
   -4.5669    2.9608    4.3780 C   0  0  0  0  0  0  0  0  0  0  0  0
   -5.2463    2.1401    5.3780 C   0  0  0  0  0  0  0  0  0  0  0  0
   -3.6802    1.3938    1.1001 C   0  0  0  0  0  0  0  0  0  0  0  0
   -3.6840    1.1965   -0.3896 C   0  0  0  0  0  0  0  0  0  0  0  0
   -4.5009   -0.0393   -0.9492 C   0  0  0  0  0  0  0  0  0  0  0  0
   -5.9995    0.1226   -0.7600 C   0  0  0  0  0  0  0  0  0  0  0  0
   -4.3010   -0.0508   -2.4403 C   0  0  0  0  0  0  0  0  0  0  0  0
   -4.0636   -1.3677   -0.3206 C   0  0  0  0  0  0  0  0  0  0  0  0
   -2.9271   -2.0567   -1.0375 O   0  0  0  0  0  0  0  0  0  0  0  0
   -3.0067   -3.3636   -1.6133 C   0  0  0  0  0  0  0  0  0  0  0  0
   -1.7630   -3.9551   -2.2720 C   0  0  0  0  0  0  0  0  0  0  0  0
   -0.9367   -2.9016   -2.7959 N   0  0  0  0  0  0  0  0  0  0  0  0
    0.2224   -3.2873   -3.4704 N   0  0  0  0  0  0  0  0  0  0  0  0
    1.4528   -2.8256   -3.0957 C   0  0  0  0  0  0  0  0  0  0  0  0
    1.5270   -1.8758   -1.9411 C   0  0  0  0  0  0  0  0  0  0  0  0
    2.5099   -0.8350   -2.1512 N   0  0  0  0  0  0  0  0  0  0  0  0
    2.1956    0.4174   -2.4834 C   0  0  0  0  0  0  0  0  0  0  0  0
    3.3217    1.3921   -2.4444 C   0  0  0  0  0  0  0  0  0  0  0  0
    4.0112    1.6893   -3.7568 C   0  0  0  0  0  0  0  0  0  0  0  0
    3.4469    1.2488   -5.0213 C   0  0  0  0  0  0  0  0  0  0  0  0
    5.4459    2.0407   -3.6960 C   0  0  0  0  0  0  0  0  0  0  0  0
    2.8277    2.5895   -1.7831 N   0  0  0  0  0  0  0  0  0  0  0  0
    2.7742    2.5791   -0.4188 C   0  0  0  0  0  0  0  0  0  0  0  0
    2.2161    3.6867    0.4220 C   0  0  0  0  0  0  0  0  0  0  0  0
    2.7389    3.6442    1.8571 C   0  0  0  0  0  0  0  0  0  0  0  0
    2.0619    4.6823    2.6859 C   0  0  0  0  0  0  0  0  0  0  0  0
    0.6003    4.5401    2.5664 N   0  0  0  0  0  0  0  0  0  0  0  0
   -0.2115    4.3818    3.6460 C   0  0  0  0  0  0  0  0  0  0  0  0
    0.2999    3.9554    4.8425 C   0  0  0  0  0  0  0  0  0  0  0  0
    0.6806    3.6539    5.8828 C   0  0  0  0  0  0  0  0  0  0  0  0
    1.3489    3.2377    7.0517 C   0  0  0  0  0  0  0  0  0  0  0  0
    2.1841    4.2565    7.6040 N   0  0  0  0  0  0  0  0  0  0  0  0
    2.1302    5.5690    7.1120 C   0  0  0  0  0  0  0  0  0  0  0  0
    2.9214    4.0567    8.7812 C   0  0  0  0  0  0  0  0  0  0  0  0
    0.3238    2.8131    8.0771 C   0  0  0  0  0  0  0  0  0  0  0  0
    2.2122    2.0296    6.7012 C   0  0  0  0  0  0  0  0  0  0  0  0
   -1.4370    4.5619    3.5387 O   0  0  0  0  0  0  0  0  0  0  0  0
    0.0521    4.5449    1.2433 C   0  0  0  0  0  0  0  0  0  0  0  0
    0.7065    3.4935    0.4218 C   0  0  0  0  0  0  0  0  0  0  0  0
    3.1899    1.5587    0.1638 O   0  0  0  0  0  0  0  0  0  0  0  0
    2.3020    3.7049   -2.5980 C   0  0  0  0  0  0  0  0  0  0  0  0
    1.0287    0.7510   -2.6465 O   0  0  0  0  0  0  0  0  0  0  0  0
    1.8809   -2.6694   -0.6227 C   0  0  0  0  0  0  0  0  0  0  0  0
    1.9086   -1.8075    0.6720 C   0  0  0  0  0  0  0  0  0  0  0  0
    0.5061   -1.6446    1.1254 C   0  0  0  0  0  0  0  0  0  0  0  0
    0.4286   -0.9487    2.3889 N   0  0  0  0  0  0  0  0  0  0  0  0
    1.2715   -1.4944    3.4566 C   0  0  0  0  0  0  0  0  0  0  0  0
    2.6941   -1.7760    2.9423 C   0  0  0  0  0  0  0  0  0  0  0  0
    2.6685   -2.5283    1.6801 O   0  0  0  0  0  0  0  0  0  0  0  0
    2.4975   -3.2130   -3.6411 O   0  0  0  0  0  0  0  0  0  0  0  0
    0.0232   -4.1545   -4.6325 C   0  0  0  0  0  0  0  0  0  0  0  0
   -0.8553   -5.3476   -4.2068 C   0  0  0  0  0  0  0  0  0  0  0  0
   -2.1196   -4.9023   -3.4636 C   0  0  0  0  0  0  0  0  0  0  0  0
   -4.0428   -4.0676   -1.6001 O   0  0  0  0  0  0  0  0  0  0  0  0
   -2.6858    0.9187    1.9582 C   0  0  0  0  0  0  0  0  0  0  0  0
   -2.9362    1.4143    3.2342 C   0  0  0  0  0  0  0  0  0  0  0  0
   -2.0311    1.0971    4.2887 C   0  0  0  0  0  0  0  0  0  0  0  0
   -0.9166    0.3192    3.9667 C   0  0  0  0  0  0  0  0  0  0  0  0
   -0.6904   -0.1677    2.6748 C   0  0  0  0  0  0  0  0  0  0  0  0
   -1.5832    0.1405    1.6451 C   0  0  0  0  0  0  0  0  0  0  0  0
    2.5521    4.9241   -0.0701 F   0  0  0  0  0  0  0  0  0  0  0  0
  1  2  1  0  0  0  0
  2  3  1  0  0  0  0
  2  5  1  0  0  0  0
  3  4  1  0  0  0  0
  5  6  4  0  0  0  0
  5 10  4  0  0  0  0
  6  7  4  0  0  0  0
  7  8  4  0  0  0  0
  8  9  4  0  0  0  0
  9 10  4  0  0  0  0
 10 11  1  0  0  0  0
 11 12  4  0  0  0  0
 11 15  4  0  0  0  0
 12 13  1  0  0  0  0
 12 68  4  0  0  0  0
 13 14  1  0  0  0  0
 15 16  1  0  0  0  0
 15 67  4  0  0  0  0
 16 17  1  0  0  0  0
 17 18  1  0  0  0  0
 17 19  1  0  0  0  0
 17 20  1  0  0  0  0
 20 21  1  0  0  0  0
 21 22  1  0  0  0  0
 22 23  1  0  0  0  0
 22 66  2  0  0  0  0
 23 24  1  0  0  0  0
 23 65  1  0  0  0  0
 24 25  1  0  0  0  0
 25 26  1  0  0  0  0
 25 63  1  0  0  0  0
 26 27  1  0  0  0  0
 26 62  2  0  0  0  0
 27 28  1  0  0  0  0
 27 55  1  0  0  0  0
 28 29  1  0  0  0  0
 29 30  1  0  0  0  0
 29 54  2  0  0  0  0
 30 31  1  0  0  0  0
 30 34  1  0  0  0  0
 31 32  1  0  0  0  0
 31 33  1  0  0  0  0
 34 35  1  0  0  0  0
 34 53  1  0  0  0  0
 35 36  1  0  0  0  0
 35 52  2  0  0  0  0
 36 37  1  0  0  0  0
 36 51  1  0  0  0  0
 36 73  1  0  0  0  0
 37 38  1  0  0  0  0
 38 39  1  0  0  0  0
 39 40  1  0  0  0  0
 39 50  1  0  0  0  0
 40 41  1  0  0  0  0
 40 49  2  0  0  0  0
 41 42  1  0  0  0  0
 42 43  1  0  0  0  0
 43 44  1  0  0  0  0
 43 47  1  0  0  0  0
 43 48  1  0  0  0  0
 44 45  1  0  0  0  0
 44 46  1  0  0  0  0
 50 51  1  0  0  0  0
 55 56  1  0  0  0  0
 56 57  1  0  0  0  0
 56 61  1  0  0  0  0
 57 58  1  0  0  0  0
 58 59  1  0  0  0  0
 58 71  1  0  0  0  0
 59 60  1  0  0  0  0
 60 61  1  0  0  0  0
 63 64  1  0  0  0  0
 64 65  1  0  0  0  0
 67 68  4  0  0  0  0
 67 72  4  0  0  0  0
 68 69  4  0  0  0  0
 69 70  4  0  0  0  0
 70 71  4  0  0  0  0
 71 72  4  0  0  0  0
M  END
$$$$
