mol_ETKDG2_117
  PyMOL3.1          3D                             0

 73 79  0  0  0  0  0  0  0  0999 V2000
    3.6621   -4.2393   -0.8714 C   0  0  0  0  0  0  0  0  0  0  0  0
    4.2800   -2.8936   -0.8068 C   0  0  0  0  0  0  0  0  0  0  0  0
    5.1549   -2.7032    0.3172 O   0  0  0  0  0  0  0  0  0  0  0  0
    4.5940   -2.1512    1.4724 C   0  0  0  0  0  0  0  0  0  0  0  0
    5.0663   -2.5708   -2.0102 C   0  0  0  0  0  0  0  0  0  0  0  0
    6.3380   -2.9169   -2.0154 N   0  0  0  0  0  0  0  0  0  0  0  0
    7.1336   -2.6673   -3.0766 C   0  0  0  0  0  0  0  0  0  0  0  0
    6.6423   -2.0397   -4.2238 C   0  0  0  0  0  0  0  0  0  0  0  0
    5.2922   -1.6785   -4.2543 C   0  0  0  0  0  0  0  0  0  0  0  0
    4.4970   -1.9397   -3.1231 C   0  0  0  0  0  0  0  0  0  0  0  0
    3.1045   -1.5444   -3.1650 C   0  0  0  0  0  0  0  0  0  0  0  0
    2.1675   -2.2097   -3.8894 N   0  0  0  0  0  0  0  0  0  0  0  0
    2.3499   -3.4551   -4.7137 C   0  0  0  0  0  0  0  0  0  0  0  0
    2.3179   -3.2131   -6.1555 C   0  0  0  0  0  0  0  0  0  0  0  0
    2.5039   -0.4745   -2.4311 C   0  0  0  0  0  0  0  0  0  0  0  0
    3.0747    0.4805   -1.4036 C   0  0  0  0  0  0  0  0  0  0  0  0
    3.6353    1.8695   -1.9573 C   0  0  0  0  0  0  0  0  0  0  0  0
    4.5527    1.6807   -3.1421 C   0  0  0  0  0  0  0  0  0  0  0  0
    4.4721    2.4890   -0.8620 C   0  0  0  0  0  0  0  0  0  0  0  0
    2.5131    2.8310   -2.3866 C   0  0  0  0  0  0  0  0  0  0  0  0
    1.7353    3.5462   -1.2923 O   0  0  0  0  0  0  0  0  0  0  0  0
    1.5766    4.9834   -1.2153 C   0  0  0  0  0  0  0  0  0  0  0  0
    0.5675    5.5757   -0.2281 C   0  0  0  0  0  0  0  0  0  0  0  0
    0.3876    4.7042    0.8923 N   0  0  0  0  0  0  0  0  0  0  0  0
   -0.4959    5.1196    1.8947 N   0  0  0  0  0  0  0  0  0  0  0  0
   -1.5605    4.3398    2.2749 C   0  0  0  0  0  0  0  0  0  0  0  0
   -1.7938    3.0332    1.5648 C   0  0  0  0  0  0  0  0  0  0  0  0
   -2.2716    1.9954    2.4620 N   0  0  0  0  0  0  0  0  0  0  0  0
   -1.4798    1.0650    3.0225 C   0  0  0  0  0  0  0  0  0  0  0  0
   -2.1735   -0.0356    3.7667 C   0  0  0  0  0  0  0  0  0  0  0  0
   -2.1227    0.0764    5.3230 C   0  0  0  0  0  0  0  0  0  0  0  0
   -3.0491   -0.8797    6.0032 C   0  0  0  0  0  0  0  0  0  0  0  0
   -2.2559    1.4797    5.8295 C   0  0  0  0  0  0  0  0  0  0  0  0
   -1.5874   -1.2888    3.2814 N   0  0  0  0  0  0  0  0  0  0  0  0
   -2.0991   -1.8465    2.1244 C   0  0  0  0  0  0  0  0  0  0  0  0
   -1.5709   -3.0944    1.4540 C   0  0  0  0  0  0  0  0  0  0  0  0
   -0.5707   -2.6484    0.4052 C   0  0  0  0  0  0  0  0  0  0  0  0
    0.0227   -3.8165   -0.3072 C   0  0  0  0  0  0  0  0  0  0  0  0
   -1.0501   -4.6589   -0.8533 N   0  0  0  0  0  0  0  0  0  0  0  0
   -1.0452   -5.0304   -2.1730 C   0  0  0  0  0  0  0  0  0  0  0  0
   -2.1984   -5.4700   -2.8031 C   0  0  0  0  0  0  0  0  0  0  0  0
   -3.0796   -5.8674   -3.4392 C   0  0  0  0  0  0  0  0  0  0  0  0
   -4.2573   -6.3062   -4.0725 C   0  0  0  0  0  0  0  0  0  0  0  0
   -3.9398   -7.0447   -5.2559 N   0  0  0  0  0  0  0  0  0  0  0  0
   -3.4399   -8.3589   -5.1240 C   0  0  0  0  0  0  0  0  0  0  0  0
   -3.6919   -6.3820   -6.4707 C   0  0  0  0  0  0  0  0  0  0  0  0
   -5.1287   -5.1102   -4.3961 C   0  0  0  0  0  0  0  0  0  0  0  0
   -5.0684   -7.1785   -3.1239 C   0  0  0  0  0  0  0  0  0  0  0  0
   -0.0208   -4.9498   -2.8436 O   0  0  0  0  0  0  0  0  0  0  0  0
   -2.0929   -5.0577    0.0537 C   0  0  0  0  0  0  0  0  0  0  0  0
   -2.6795   -3.9166    0.7898 C   0  0  0  0  0  0  0  0  0  0  0  0
   -3.0536   -1.2617    1.5789 O   0  0  0  0  0  0  0  0  0  0  0  0
   -0.3983   -1.8244    3.9631 C   0  0  0  0  0  0  0  0  0  0  0  0
   -0.2869    1.0645    2.7983 O   0  0  0  0  0  0  0  0  0  0  0  0
   -2.8526    3.2427    0.4048 C   0  0  0  0  0  0  0  0  0  0  0  0
   -3.1505    1.9851   -0.4680 C   0  0  0  0  0  0  0  0  0  0  0  0
   -2.0072    1.7977   -1.4072 C   0  0  0  0  0  0  0  0  0  0  0  0
   -2.2441    0.7311   -2.3620 N   0  0  0  0  0  0  0  0  0  0  0  0
   -3.5156    0.7920   -3.0751 C   0  0  0  0  0  0  0  0  0  0  0  0
   -4.6719    1.1243   -2.1194 C   0  0  0  0  0  0  0  0  0  0  0  0
   -4.3525    2.2582   -1.2422 O   0  0  0  0  0  0  0  0  0  0  0  0
   -2.3578    4.7068    3.1579 O   0  0  0  0  0  0  0  0  0  0  0  0
   -0.1675    6.3916    2.5316 C   0  0  0  0  0  0  0  0  0  0  0  0
    0.0371    7.4561    1.4351 C   0  0  0  0  0  0  0  0  0  0  0  0
    0.9911    6.9770    0.3264 C   0  0  0  0  0  0  0  0  0  0  0  0
    2.2370    5.7698   -1.9156 O   0  0  0  0  0  0  0  0  0  0  0  0
    1.1555   -0.5357   -2.8091 C   0  0  0  0  0  0  0  0  0  0  0  0
    0.9905   -1.5985   -3.6960 C   0  0  0  0  0  0  0  0  0  0  0  0
   -0.3238   -1.8901   -4.2003 C   0  0  0  0  0  0  0  0  0  0  0  0
   -1.3779   -1.1008   -3.7366 C   0  0  0  0  0  0  0  0  0  0  0  0
   -1.1766   -0.0408   -2.8288 C   0  0  0  0  0  0  0  0  0  0  0  0
    0.1076    0.2448   -2.3623 C   0  0  0  0  0  0  0  0  0  0  0  0
   -0.9958   -3.9588    2.3519 F   0  0  0  0  0  0  0  0  0  0  0  0
  1  2  1  0  0  0  0
  2  3  1  0  0  0  0
  2  5  1  0  0  0  0
  3  4  1  0  0  0  0
  5  6  4  0  0  0  0
  5 10  4  0  0  0  0
  6  7  4  0  0  0  0
  7  8  4  0  0  0  0
  8  9  4  0  0  0  0
  9 10  4  0  0  0  0
 10 11  1  0  0  0  0
 11 12  4  0  0  0  0
 11 15  4  0  0  0  0
 12 13  1  0  0  0  0
 12 68  4  0  0  0  0
 13 14  1  0  0  0  0
 15 16  1  0  0  0  0
 15 67  4  0  0  0  0
 16 17  1  0  0  0  0
 17 18  1  0  0  0  0
 17 19  1  0  0  0  0
 17 20  1  0  0  0  0
 20 21  1  0  0  0  0
 21 22  1  0  0  0  0
 22 23  1  0  0  0  0
 22 66  2  0  0  0  0
 23 24  1  0  0  0  0
 23 65  1  0  0  0  0
 24 25  1  0  0  0  0
 25 26  1  0  0  0  0
 25 63  1  0  0  0  0
 26 27  1  0  0  0  0
 26 62  2  0  0  0  0
 27 28  1  0  0  0  0
 27 55  1  0  0  0  0
 28 29  1  0  0  0  0
 29 30  1  0  0  0  0
 29 54  2  0  0  0  0
 30 31  1  0  0  0  0
 30 34  1  0  0  0  0
 31 32  1  0  0  0  0
 31 33  1  0  0  0  0
 34 35  1  0  0  0  0
 34 53  1  0  0  0  0
 35 36  1  0  0  0  0
 35 52  2  0  0  0  0
 36 37  1  0  0  0  0
 36 51  1  0  0  0  0
 36 73  1  0  0  0  0
 37 38  1  0  0  0  0
 38 39  1  0  0  0  0
 39 40  1  0  0  0  0
 39 50  1  0  0  0  0
 40 41  1  0  0  0  0
 40 49  2  0  0  0  0
 41 42  1  0  0  0  0
 42 43  1  0  0  0  0
 43 44  1  0  0  0  0
 43 47  1  0  0  0  0
 43 48  1  0  0  0  0
 44 45  1  0  0  0  0
 44 46  1  0  0  0  0
 50 51  1  0  0  0  0
 55 56  1  0  0  0  0
 56 57  1  0  0  0  0
 56 61  1  0  0  0  0
 57 58  1  0  0  0  0
 58 59  1  0  0  0  0
 58 71  1  0  0  0  0
 59 60  1  0  0  0  0
 60 61  1  0  0  0  0
 63 64  1  0  0  0  0
 64 65  1  0  0  0  0
 67 68  4  0  0  0  0
 67 72  4  0  0  0  0
 68 69  4  0  0  0  0
 69 70  4  0  0  0  0
 70 71  4  0  0  0  0
 71 72  4  0  0  0  0
M  END
$$$$
