mol_bioactive_14
  PyMOL3.1          3D                             0

 73 79  0  0  0  0  0  0  0  0999 V2000
  -10.4908   -0.3647   -1.4352 C   0  0  0  0  0  0  0  0  0  0  0  0
   -9.2684   -0.7229   -0.6716 C   0  0  0  0  0  0  0  0  0  0  0  0
   -9.0202   -2.0940   -0.6058 O   0  0  0  0  0  0  0  0  0  0  0  0
   -8.8265   -2.7899   -1.8300 C   0  0  0  0  0  0  0  0  0  0  0  0
   -9.2579   -0.1742    0.7301 C   0  0  0  0  0  0  0  0  0  0  0  0
  -10.3374   -0.3947    1.4731 N   0  0  0  0  0  0  0  0  0  0  0  0
  -10.4303    0.0839    2.7308 C   0  0  0  0  0  0  0  0  0  0  0  0
   -9.4148    0.8450    3.3062 C   0  0  0  0  0  0  0  0  0  0  0  0
   -8.2718    1.0899    2.5402 C   0  0  0  0  0  0  0  0  0  0  0  0
   -8.1938    0.5716    1.2476 C   0  0  0  0  0  0  0  0  0  0  0  0
   -6.9893    0.7897    0.4802 C   0  0  0  0  0  0  0  0  0  0  0  0
   -6.9375    1.6045   -0.5922 N   0  0  0  0  0  0  0  0  0  0  0  0
   -8.0229    2.5086   -1.0971 C   0  0  0  0  0  0  0  0  0  0  0  0
   -8.4423    2.2850   -2.4703 C   0  0  0  0  0  0  0  0  0  0  0  0
   -5.7030    0.2195    0.7238 C   0  0  0  0  0  0  0  0  0  0  0  0
   -5.1592   -0.5840    1.8750 C   0  0  0  0  0  0  0  0  0  0  0  0
   -5.3315   -2.1395    1.8550 C   0  0  0  0  0  0  0  0  0  0  0  0
   -6.7783   -2.5656    2.0314 C   0  0  0  0  0  0  0  0  0  0  0  0
   -4.6153   -2.6909    3.0680 C   0  0  0  0  0  0  0  0  0  0  0  0
   -4.7679   -2.7476    0.6078 C   0  0  0  0  0  0  0  0  0  0  0  0
   -3.3171   -3.1862    0.6447 O   0  0  0  0  0  0  0  0  0  0  0  0
   -2.8182   -4.3416   -0.0432 C   0  0  0  0  0  0  0  0  0  0  0  0
   -1.3371   -4.6505   -0.0047 C   0  0  0  0  0  0  0  0  0  0  0  0
   -0.6359   -3.7285    0.8429 N   0  0  0  0  0  0  0  0  0  0  0  0
    0.7355   -3.8911    1.0049 N   0  0  0  0  0  0  0  0  0  0  0  0
    1.6113   -2.8566    0.7814 C   0  0  0  0  0  0  0  0  0  0  0  0
    1.0603   -1.5277    0.3365 C   0  0  0  0  0  0  0  0  0  0  0  0
    1.7627   -0.3946    0.9206 N   0  0  0  0  0  0  0  0  0  0  0  0
    1.3283    0.3184    1.9602 C   0  0  0  0  0  0  0  0  0  0  0  0
    2.0825    1.5655    2.2954 C   0  0  0  0  0  0  0  0  0  0  0  0
    3.1226    1.4727    3.4472 C   0  0  0  0  0  0  0  0  0  0  0  0
    3.6485    0.1270    3.7282 C   0  0  0  0  0  0  0  0  0  0  0  0
    4.1958    2.5232    3.3150 C   0  0  0  0  0  0  0  0  0  0  0  0
    1.0745    2.5978    2.5240 N   0  0  0  0  0  0  0  0  0  0  0  0
    0.5377    3.2382    1.4263 C   0  0  0  0  0  0  0  0  0  0  0  0
   -0.6071    4.2200    1.4694 C   0  0  0  0  0  0  0  0  0  0  0  0
   -0.7007    5.0730    0.1991 C   0  0  0  0  0  0  0  0  0  0  0  0
   -1.9221    5.9121    0.2023 C   0  0  0  0  0  0  0  0  0  0  0  0
   -3.1287    5.1359    0.5065 N   0  0  0  0  0  0  0  0  0  0  0  0
   -4.2773    5.2192   -0.2307 C   0  0  0  0  0  0  0  0  0  0  0  0
   -4.2909    5.8154   -1.4786 C   0  0  0  0  0  0  0  0  0  0  0  0
   -4.4190    6.3076   -2.5210 C   0  0  0  0  0  0  0  0  0  0  0  0
   -4.3272    6.9299   -3.7896 C   0  0  0  0  0  0  0  0  0  0  0  0
   -4.7533    6.0708   -4.8259 N   0  0  0  0  0  0  0  0  0  0  0  0
   -5.6940    6.4541   -5.7870 C   0  0  0  0  0  0  0  0  0  0  0  0
   -4.0950    4.8465   -5.0561 C   0  0  0  0  0  0  0  0  0  0  0  0
   -5.1482    8.1966   -3.7505 C   0  0  0  0  0  0  0  0  0  0  0  0
   -2.8820    7.3473   -4.0705 C   0  0  0  0  0  0  0  0  0  0  0  0
   -5.3248    4.7380    0.2105 O   0  0  0  0  0  0  0  0  0  0  0  0
   -3.0686    4.2570    1.6362 C   0  0  0  0  0  0  0  0  0  0  0  0
   -1.8728    3.3928    1.6020 C   0  0  0  0  0  0  0  0  0  0  0  0
    1.0046    2.9376    0.3100 O   0  0  0  0  0  0  0  0  0  0  0  0
    0.5912    2.8155    3.8994 C   0  0  0  0  0  0  0  0  0  0  0  0
    0.2729    0.0221    2.4988 O   0  0  0  0  0  0  0  0  0  0  0  0
    1.1724   -1.4395   -1.2266 C   0  0  0  0  0  0  0  0  0  0  0  0
    0.2515   -0.5611   -2.0825 C   0  0  0  0  0  0  0  0  0  0  0  0
   -0.9164   -0.0531   -1.3854 C   0  0  0  0  0  0  0  0  0  0  0  0
   -1.7128    0.8465   -2.1567 N   0  0  0  0  0  0  0  0  0  0  0  0
   -1.2028    1.3730   -3.3937 C   0  0  0  0  0  0  0  0  0  0  0  0
    0.2431    1.2249   -3.6543 C   0  0  0  0  0  0  0  0  0  0  0  0
    1.0235    0.4570   -2.7222 O   0  0  0  0  0  0  0  0  0  0  0  0
    2.8393   -3.0038    0.8619 O   0  0  0  0  0  0  0  0  0  0  0  0
    1.1615   -5.2121    1.4723 C   0  0  0  0  0  0  0  0  0  0  0  0
    0.4850   -6.3155    0.6239 C   0  0  0  0  0  0  0  0  0  0  0  0
   -1.0242   -6.0991    0.4668 C   0  0  0  0  0  0  0  0  0  0  0  0
   -3.5236   -5.1364   -0.6893 O   0  0  0  0  0  0  0  0  0  0  0  0
   -4.9192    0.6967   -0.3366 C   0  0  0  0  0  0  0  0  0  0  0  0
   -5.7065    1.5414   -1.1095 C   0  0  0  0  0  0  0  0  0  0  0  0
   -5.1286    2.2044   -2.2327 C   0  0  0  0  0  0  0  0  0  0  0  0
   -3.8101    1.9478   -2.5219 C   0  0  0  0  0  0  0  0  0  0  0  0
   -3.0295    1.0922   -1.7727 C   0  0  0  0  0  0  0  0  0  0  0  0
   -3.5776    0.4569   -0.6293 C   0  0  0  0  0  0  0  0  0  0  0  0
   -0.4835    5.0954    2.5286 F   0  0  0  0  0  0  0  0  0  0  0  0
  1  2  1  0  0  0  0
  2  3  1  0  0  0  0
  2  5  1  0  0  0  0
  3  4  1  0  0  0  0
  5  6  4  0  0  0  0
  5 10  4  0  0  0  0
  6  7  4  0  0  0  0
  7  8  4  0  0  0  0
  8  9  4  0  0  0  0
  9 10  4  0  0  0  0
 10 11  1  0  0  0  0
 11 12  4  0  0  0  0
 11 15  4  0  0  0  0
 12 13  1  0  0  0  0
 12 68  4  0  0  0  0
 13 14  1  0  0  0  0
 15 16  1  0  0  0  0
 15 67  4  0  0  0  0
 16 17  1  0  0  0  0
 17 18  1  0  0  0  0
 17 19  1  0  0  0  0
 17 20  1  0  0  0  0
 20 21  1  0  0  0  0
 21 22  1  0  0  0  0
 22 23  1  0  0  0  0
 22 66  2  0  0  0  0
 23 24  1  0  0  0  0
 23 65  1  0  0  0  0
 24 25  1  0  0  0  0
 25 26  1  0  0  0  0
 25 63  1  0  0  0  0
 26 27  1  0  0  0  0
 26 62  2  0  0  0  0
 27 28  1  0  0  0  0
 27 55  1  0  0  0  0
 28 29  1  0  0  0  0
 29 30  1  0  0  0  0
 29 54  2  0  0  0  0
 30 31  1  0  0  0  0
 30 34  1  0  0  0  0
 31 32  1  0  0  0  0
 31 33  1  0  0  0  0
 34 35  1  0  0  0  0
 34 53  1  0  0  0  0
 35 36  1  0  0  0  0
 35 52  2  0  0  0  0
 36 37  1  0  0  0  0
 36 51  1  0  0  0  0
 36 73  1  0  0  0  0
 37 38  1  0  0  0  0
 38 39  1  0  0  0  0
 39 40  1  0  0  0  0
 39 50  1  0  0  0  0
 40 41  1  0  0  0  0
 40 49  2  0  0  0  0
 41 42  1  0  0  0  0
 42 43  1  0  0  0  0
 43 44  1  0  0  0  0
 43 47  1  0  0  0  0
 43 48  1  0  0  0  0
 44 45  1  0  0  0  0
 44 46  1  0  0  0  0
 50 51  1  0  0  0  0
 55 56  1  0  0  0  0
 56 57  1  0  0  0  0
 56 61  1  0  0  0  0
 57 58  1  0  0  0  0
 58 59  1  0  0  0  0
 58 71  1  0  0  0  0
 59 60  1  0  0  0  0
 60 61  1  0  0  0  0
 63 64  1  0  0  0  0
 64 65  1  0  0  0  0
 67 68  4  0  0  0  0
 67 72  4  0  0  0  0
 68 69  4  0  0  0  0
 69 70  4  0  0  0  0
 70 71  4  0  0  0  0
 71 72  4  0  0  0  0
M  END
$$$$
