mol_ETKDG2_120
  PyMOL3.1          3D                             0

 73 79  0  0  0  0  0  0  0  0999 V2000
   -6.6354    0.3939   -3.6727 C   0  0  0  0  0  0  0  0  0  0  0  0
   -5.3280   -0.0843   -4.1522 C   0  0  0  0  0  0  0  0  0  0  0  0
   -4.7068    0.7141   -5.1325 O   0  0  0  0  0  0  0  0  0  0  0  0
   -4.1565    1.9365   -4.7161 C   0  0  0  0  0  0  0  0  0  0  0  0
   -5.3859   -1.4544   -4.7012 C   0  0  0  0  0  0  0  0  0  0  0  0
   -5.9270   -1.6286   -5.8906 N   0  0  0  0  0  0  0  0  0  0  0  0
   -6.0609   -2.8577   -6.4273 C   0  0  0  0  0  0  0  0  0  0  0  0
   -5.6411   -4.0013   -5.7498 C   0  0  0  0  0  0  0  0  0  0  0  0
   -5.0778   -3.8479   -4.4828 C   0  0  0  0  0  0  0  0  0  0  0  0
   -4.9309   -2.5469   -3.9788 C   0  0  0  0  0  0  0  0  0  0  0  0
   -4.3123   -2.3987   -2.6957 C   0  0  0  0  0  0  0  0  0  0  0  0
   -4.9846   -2.5558   -1.5314 N   0  0  0  0  0  0  0  0  0  0  0  0
   -6.4416   -2.8592   -1.3384 C   0  0  0  0  0  0  0  0  0  0  0  0
   -6.6973   -4.2391   -0.9230 C   0  0  0  0  0  0  0  0  0  0  0  0
   -2.9746   -1.9977   -2.4632 C   0  0  0  0  0  0  0  0  0  0  0  0
   -1.8757   -1.6027   -3.4106 C   0  0  0  0  0  0  0  0  0  0  0  0
   -1.0223   -2.7782   -4.0308 C   0  0  0  0  0  0  0  0  0  0  0  0
   -1.7950   -3.5948   -5.0374 C   0  0  0  0  0  0  0  0  0  0  0  0
    0.0916   -2.1651   -4.8288 C   0  0  0  0  0  0  0  0  0  0  0  0
   -0.4529   -3.7003   -2.9853 C   0  0  0  0  0  0  0  0  0  0  0  0
    0.8515   -3.2457   -2.3998 O   0  0  0  0  0  0  0  0  0  0  0  0
    1.9205   -4.0985   -2.0381 C   0  0  0  0  0  0  0  0  0  0  0  0
    3.1815   -3.4769   -1.4643 C   0  0  0  0  0  0  0  0  0  0  0  0
    3.2217   -2.0853   -1.7521 N   0  0  0  0  0  0  0  0  0  0  0  0
    4.3295   -1.3569   -1.3409 N   0  0  0  0  0  0  0  0  0  0  0  0
    4.1906   -0.2449   -0.5642 C   0  0  0  0  0  0  0  0  0  0  0  0
    2.8226    0.1128   -0.0764 C   0  0  0  0  0  0  0  0  0  0  0  0
    2.5760    1.5336   -0.0834 N   0  0  0  0  0  0  0  0  0  0  0  0
    1.7752    2.1372   -0.9754 C   0  0  0  0  0  0  0  0  0  0  0  0
    1.4932    3.5654   -0.7101 C   0  0  0  0  0  0  0  0  0  0  0  0
    2.3247    4.5707   -1.5495 C   0  0  0  0  0  0  0  0  0  0  0  0
    2.2421    5.9631   -1.0252 C   0  0  0  0  0  0  0  0  0  0  0  0
    3.7218    4.1256   -1.8098 C   0  0  0  0  0  0  0  0  0  0  0  0
    0.0504    3.7529   -0.8611 N   0  0  0  0  0  0  0  0  0  0  0  0
   -0.7605    3.4274    0.1930 C   0  0  0  0  0  0  0  0  0  0  0  0
   -2.2635    3.5018    0.1858 C   0  0  0  0  0  0  0  0  0  0  0  0
   -2.8578    3.3667    1.5902 C   0  0  0  0  0  0  0  0  0  0  0  0
   -4.3449    3.3022    1.5456 C   0  0  0  0  0  0  0  0  0  0  0  0
   -4.7851    2.2736    0.5904 N   0  0  0  0  0  0  0  0  0  0  0  0
   -5.6292    1.2514    0.9067 C   0  0  0  0  0  0  0  0  0  0  0  0
   -5.8039    0.8265    2.2042 C   0  0  0  0  0  0  0  0  0  0  0  0
   -6.0457    0.4362    3.2592 C   0  0  0  0  0  0  0  0  0  0  0  0
   -6.2086    0.0772    4.6104 C   0  0  0  0  0  0  0  0  0  0  0  0
   -7.4749    0.5282    5.0700 N   0  0  0  0  0  0  0  0  0  0  0  0
   -8.6357   -0.1804    4.7012 C   0  0  0  0  0  0  0  0  0  0  0  0
   -7.6361    1.7886    5.6550 C   0  0  0  0  0  0  0  0  0  0  0  0
   -5.0841    0.6774    5.4244 C   0  0  0  0  0  0  0  0  0  0  0  0
   -6.0975   -1.4239    4.7878 C   0  0  0  0  0  0  0  0  0  0  0  0
   -6.2115    0.6378    0.0010 O   0  0  0  0  0  0  0  0  0  0  0  0
   -4.2477    2.3580   -0.7272 C   0  0  0  0  0  0  0  0  0  0  0  0
   -2.7589    2.3441   -0.6576 C   0  0  0  0  0  0  0  0  0  0  0  0
   -0.2084    3.0115    1.2274 O   0  0  0  0  0  0  0  0  0  0  0  0
   -0.4803    4.1786   -2.1673 C   0  0  0  0  0  0  0  0  0  0  0  0
    1.2236    1.5026   -1.8593 O   0  0  0  0  0  0  0  0  0  0  0  0
    2.6497   -0.4298    1.3938 C   0  0  0  0  0  0  0  0  0  0  0  0
    1.2387   -0.2252    1.9867 C   0  0  0  0  0  0  0  0  0  0  0  0
    0.3698   -1.2573    1.3856 C   0  0  0  0  0  0  0  0  0  0  0  0
   -0.9506   -1.2229    1.9301 N   0  0  0  0  0  0  0  0  0  0  0  0
   -1.0294   -1.2669    3.3927 C   0  0  0  0  0  0  0  0  0  0  0  0
   -0.0241   -0.2881    4.0154 C   0  0  0  0  0  0  0  0  0  0  0  0
    1.3068   -0.4339    3.4172 O   0  0  0  0  0  0  0  0  0  0  0  0
    5.1586    0.4370   -0.2091 O   0  0  0  0  0  0  0  0  0  0  0  0
    5.6185   -1.8346   -1.8403 C   0  0  0  0  0  0  0  0  0  0  0  0
    5.7243   -3.3504   -1.5658 C   0  0  0  0  0  0  0  0  0  0  0  0
    4.4821   -4.1285   -2.0205 C   0  0  0  0  0  0  0  0  0  0  0  0
    1.8952   -5.3473   -2.1514 O   0  0  0  0  0  0  0  0  0  0  0  0
   -2.8933   -1.9636   -1.0631 C   0  0  0  0  0  0  0  0  0  0  0  0
   -4.1345   -2.3167   -0.5366 C   0  0  0  0  0  0  0  0  0  0  0  0
   -4.3116   -2.3465    0.8810 C   0  0  0  0  0  0  0  0  0  0  0  0
   -3.2271   -1.9699    1.6661 C   0  0  0  0  0  0  0  0  0  0  0  0
   -2.0083   -1.6001    1.1144 C   0  0  0  0  0  0  0  0  0  0  0  0
   -1.8238   -1.6005   -0.2754 C   0  0  0  0  0  0  0  0  0  0  0  0
   -2.6907    4.7095   -0.3344 F   0  0  0  0  0  0  0  0  0  0  0  0
  1  2  1  0  0  0  0
  2  3  1  0  0  0  0
  2  5  1  0  0  0  0
  3  4  1  0  0  0  0
  5  6  4  0  0  0  0
  5 10  4  0  0  0  0
  6  7  4  0  0  0  0
  7  8  4  0  0  0  0
  8  9  4  0  0  0  0
  9 10  4  0  0  0  0
 10 11  1  0  0  0  0
 11 12  4  0  0  0  0
 11 15  4  0  0  0  0
 12 13  1  0  0  0  0
 12 68  4  0  0  0  0
 13 14  1  0  0  0  0
 15 16  1  0  0  0  0
 15 67  4  0  0  0  0
 16 17  1  0  0  0  0
 17 18  1  0  0  0  0
 17 19  1  0  0  0  0
 17 20  1  0  0  0  0
 20 21  1  0  0  0  0
 21 22  1  0  0  0  0
 22 23  1  0  0  0  0
 22 66  2  0  0  0  0
 23 24  1  0  0  0  0
 23 65  1  0  0  0  0
 24 25  1  0  0  0  0
 25 26  1  0  0  0  0
 25 63  1  0  0  0  0
 26 27  1  0  0  0  0
 26 62  2  0  0  0  0
 27 28  1  0  0  0  0
 27 55  1  0  0  0  0
 28 29  1  0  0  0  0
 29 30  1  0  0  0  0
 29 54  2  0  0  0  0
 30 31  1  0  0  0  0
 30 34  1  0  0  0  0
 31 32  1  0  0  0  0
 31 33  1  0  0  0  0
 34 35  1  0  0  0  0
 34 53  1  0  0  0  0
 35 36  1  0  0  0  0
 35 52  2  0  0  0  0
 36 37  1  0  0  0  0
 36 51  1  0  0  0  0
 36 73  1  0  0  0  0
 37 38  1  0  0  0  0
 38 39  1  0  0  0  0
 39 40  1  0  0  0  0
 39 50  1  0  0  0  0
 40 41  1  0  0  0  0
 40 49  2  0  0  0  0
 41 42  1  0  0  0  0
 42 43  1  0  0  0  0
 43 44  1  0  0  0  0
 43 47  1  0  0  0  0
 43 48  1  0  0  0  0
 44 45  1  0  0  0  0
 44 46  1  0  0  0  0
 50 51  1  0  0  0  0
 55 56  1  0  0  0  0
 56 57  1  0  0  0  0
 56 61  1  0  0  0  0
 57 58  1  0  0  0  0
 58 59  1  0  0  0  0
 58 71  1  0  0  0  0
 59 60  1  0  0  0  0
 60 61  1  0  0  0  0
 63 64  1  0  0  0  0
 64 65  1  0  0  0  0
 67 68  4  0  0  0  0
 67 72  4  0  0  0  0
 68 69  4  0  0  0  0
 69 70  4  0  0  0  0
 70 71  4  0  0  0  0
 71 72  4  0  0  0  0
M  END
$$$$
