mol_bioactive_21
  PyMOL3.1          3D                             0

 73 79  0  0  0  0  0  0  0  0999 V2000
    4.8166    3.8102    1.9114 C   0  0  0  0  0  0  0  0  0  0  0  0
    3.8755    3.3411    0.8543 C   0  0  0  0  0  0  0  0  0  0  0  0
    4.5432    2.8832   -0.3144 O   0  0  0  0  0  0  0  0  0  0  0  0
    5.2958    1.6863   -0.2032 C   0  0  0  0  0  0  0  0  0  0  0  0
    2.8768    4.3911    0.4430 C   0  0  0  0  0  0  0  0  0  0  0  0
    3.3363    5.4487   -0.2031 N   0  0  0  0  0  0  0  0  0  0  0  0
    2.5190    6.4597   -0.5680 C   0  0  0  0  0  0  0  0  0  0  0  0
    1.1553    6.4469   -0.2831 C   0  0  0  0  0  0  0  0  0  0  0  0
    0.6472    5.3469    0.3995 C   0  0  0  0  0  0  0  0  0  0  0  0
    1.5153    4.3164    0.7569 C   0  0  0  0  0  0  0  0  0  0  0  0
    0.9700    3.1556    1.4190 C   0  0  0  0  0  0  0  0  0  0  0  0
    1.0475    2.9374    2.7501 N   0  0  0  0  0  0  0  0  0  0  0  0
    1.5709    3.8833    3.7822 C   0  0  0  0  0  0  0  0  0  0  0  0
    2.7026    3.4100    4.5598 C   0  0  0  0  0  0  0  0  0  0  0  0
    0.2793    2.0884    0.7933 C   0  0  0  0  0  0  0  0  0  0  0  0
   -0.2407    1.9313   -0.5934 C   0  0  0  0  0  0  0  0  0  0  0  0
    0.7057    1.3659   -1.6954 C   0  0  0  0  0  0  0  0  0  0  0  0
    1.7002    2.4016   -2.1877 C   0  0  0  0  0  0  0  0  0  0  0  0
   -0.1537    1.0675   -2.8835 C   0  0  0  0  0  0  0  0  0  0  0  0
    1.4324    0.1295   -1.2221 C   0  0  0  0  0  0  0  0  0  0  0  0
    0.7873   -1.1737   -1.5923 O   0  0  0  0  0  0  0  0  0  0  0  0
    1.4727   -2.2832   -2.1529 C   0  0  0  0  0  0  0  0  0  0  0  0
    0.6705   -3.5326   -2.4680 C   0  0  0  0  0  0  0  0  0  0  0  0
   -0.7161   -3.1983   -2.5735 N   0  0  0  0  0  0  0  0  0  0  0  0
   -1.6231   -4.1763   -2.9411 N   0  0  0  0  0  0  0  0  0  0  0  0
   -2.7503   -4.4102   -2.1892 C   0  0  0  0  0  0  0  0  0  0  0  0
   -2.9342   -3.6663   -0.8855 C   0  0  0  0  0  0  0  0  0  0  0  0
   -4.3245   -3.2951   -0.6597 N   0  0  0  0  0  0  0  0  0  0  0  0
   -4.8630   -2.1043   -0.9164 C   0  0  0  0  0  0  0  0  0  0  0  0
   -6.2688   -1.8725   -0.4497 C   0  0  0  0  0  0  0  0  0  0  0  0
   -7.3920   -2.0830   -1.4889 C   0  0  0  0  0  0  0  0  0  0  0  0
   -8.7292   -2.3081   -0.8801 C   0  0  0  0  0  0  0  0  0  0  0  0
   -7.0616   -2.9845   -2.6175 C   0  0  0  0  0  0  0  0  0  0  0  0
   -6.3180   -0.5311    0.1142 N   0  0  0  0  0  0  0  0  0  0  0  0
   -5.9307   -0.3503    1.4280 C   0  0  0  0  0  0  0  0  0  0  0  0
   -5.7753    1.0072    2.0616 C   0  0  0  0  0  0  0  0  0  0  0  0
   -4.5384    1.5883    1.4494 C   0  0  0  0  0  0  0  0  0  0  0  0
   -4.3696    2.9634    1.8667 C   0  0  0  0  0  0  0  0  0  0  0  0
   -4.2539    3.0622    3.2949 N   0  0  0  0  0  0  0  0  0  0  0  0
   -3.1680    3.7783    3.7127 C   0  0  0  0  0  0  0  0  0  0  0  0
   -2.7909    4.0554    5.0099 C   0  0  0  0  0  0  0  0  0  0  0  0
   -2.2806    4.4832    5.9774 C   0  0  0  0  0  0  0  0  0  0  0  0
   -1.8014    4.8978    7.2165 C   0  0  0  0  0  0  0  0  0  0  0  0
   -2.0460    3.9327    8.2058 N   0  0  0  0  0  0  0  0  0  0  0  0
   -3.3634    3.5115    8.3969 C   0  0  0  0  0  0  0  0  0  0  0  0
   -1.1491    3.7140    9.2637 C   0  0  0  0  0  0  0  0  0  0  0  0
   -0.3161    5.1852    7.1228 C   0  0  0  0  0  0  0  0  0  0  0  0
   -2.4850    6.2073    7.6346 C   0  0  0  0  0  0  0  0  0  0  0  0
   -2.4344    4.2619    2.8374 O   0  0  0  0  0  0  0  0  0  0  0  0
   -5.2816    2.4090    4.0874 C   0  0  0  0  0  0  0  0  0  0  0  0
   -5.6064    1.0202    3.5909 C   0  0  0  0  0  0  0  0  0  0  0  0
   -5.6544   -1.3569    2.0967 O   0  0  0  0  0  0  0  0  0  0  0  0
   -6.6445    0.5908   -0.7904 C   0  0  0  0  0  0  0  0  0  0  0  0
   -4.1711   -1.2246   -1.4003 O   0  0  0  0  0  0  0  0  0  0  0  0
   -2.4512   -4.5897    0.2938 C   0  0  0  0  0  0  0  0  0  0  0  0
   -1.9487   -4.0688    1.6588 C   0  0  0  0  0  0  0  0  0  0  0  0
   -1.6933   -2.6304    1.6798 C   0  0  0  0  0  0  0  0  0  0  0  0
   -1.3759   -2.0547    2.9526 N   0  0  0  0  0  0  0  0  0  0  0  0
   -1.5702   -2.8316    4.1485 C   0  0  0  0  0  0  0  0  0  0  0  0
   -2.3794   -4.0782    4.0180 C   0  0  0  0  0  0  0  0  0  0  0  0
   -2.8752   -4.4439    2.7061 O   0  0  0  0  0  0  0  0  0  0  0  0
   -3.5769   -5.2645   -2.5210 O   0  0  0  0  0  0  0  0  0  0  0  0
   -1.3195   -4.8835   -4.1878 C   0  0  0  0  0  0  0  0  0  0  0  0
    0.1601   -5.3355   -4.1880 C   0  0  0  0  0  0  0  0  0  0  0  0
    1.1180   -4.2273   -3.7817 C   0  0  0  0  0  0  0  0  0  0  0  0
    2.6931   -2.3080   -2.4014 O   0  0  0  0  0  0  0  0  0  0  0  0
    0.0184    1.1841    1.8381 C   0  0  0  0  0  0  0  0  0  0  0  0
    0.4832    1.7447    3.0162 C   0  0  0  0  0  0  0  0  0  0  0  0
    0.2870    1.0312    4.2451 C   0  0  0  0  0  0  0  0  0  0  0  0
   -0.3344   -0.2169    4.1825 C   0  0  0  0  0  0  0  0  0  0  0  0
   -0.7862   -0.7804    2.9844 C   0  0  0  0  0  0  0  0  0  0  0  0
   -0.6274   -0.0532    1.7827 C   0  0  0  0  0  0  0  0  0  0  0  0
   -6.9001    1.7788    1.8228 F   0  0  0  0  0  0  0  0  0  0  0  0
  1  2  1  0  0  0  0
  2  3  1  0  0  0  0
  2  5  1  0  0  0  0
  3  4  1  0  0  0  0
  5  6  4  0  0  0  0
  5 10  4  0  0  0  0
  6  7  4  0  0  0  0
  7  8  4  0  0  0  0
  8  9  4  0  0  0  0
  9 10  4  0  0  0  0
 10 11  1  0  0  0  0
 11 12  4  0  0  0  0
 11 15  4  0  0  0  0
 12 13  1  0  0  0  0
 12 68  4  0  0  0  0
 13 14  1  0  0  0  0
 15 16  1  0  0  0  0
 15 67  4  0  0  0  0
 16 17  1  0  0  0  0
 17 18  1  0  0  0  0
 17 19  1  0  0  0  0
 17 20  1  0  0  0  0
 20 21  1  0  0  0  0
 21 22  1  0  0  0  0
 22 23  1  0  0  0  0
 22 66  2  0  0  0  0
 23 24  1  0  0  0  0
 23 65  1  0  0  0  0
 24 25  1  0  0  0  0
 25 26  1  0  0  0  0
 25 63  1  0  0  0  0
 26 27  1  0  0  0  0
 26 62  2  0  0  0  0
 27 28  1  0  0  0  0
 27 55  1  0  0  0  0
 28 29  1  0  0  0  0
 29 30  1  0  0  0  0
 29 54  2  0  0  0  0
 30 31  1  0  0  0  0
 30 34  1  0  0  0  0
 31 32  1  0  0  0  0
 31 33  1  0  0  0  0
 34 35  1  0  0  0  0
 34 53  1  0  0  0  0
 35 36  1  0  0  0  0
 35 52  2  0  0  0  0
 36 37  1  0  0  0  0
 36 51  1  0  0  0  0
 36 73  1  0  0  0  0
 37 38  1  0  0  0  0
 38 39  1  0  0  0  0
 39 40  1  0  0  0  0
 39 50  1  0  0  0  0
 40 41  1  0  0  0  0
 40 49  2  0  0  0  0
 41 42  1  0  0  0  0
 42 43  1  0  0  0  0
 43 44  1  0  0  0  0
 43 47  1  0  0  0  0
 43 48  1  0  0  0  0
 44 45  1  0  0  0  0
 44 46  1  0  0  0  0
 50 51  1  0  0  0  0
 55 56  1  0  0  0  0
 56 57  1  0  0  0  0
 56 61  1  0  0  0  0
 57 58  1  0  0  0  0
 58 59  1  0  0  0  0
 58 71  1  0  0  0  0
 59 60  1  0  0  0  0
 60 61  1  0  0  0  0
 63 64  1  0  0  0  0
 64 65  1  0  0  0  0
 67 68  4  0  0  0  0
 67 72  4  0  0  0  0
 68 69  4  0  0  0  0
 69 70  4  0  0  0  0
 70 71  4  0  0  0  0
 71 72  4  0  0  0  0
M  END
$$$$
