mol_ETKDG4_221
  PyMOL3.1          3D                             0

 73 79  0  0  0  0  0  0  0  0999 V2000
    2.5740   -3.8989    2.2947 C   0  0  0  0  0  0  0  0  0  0  0  0
    3.5426   -3.2698    3.2063 C   0  0  0  0  0  0  0  0  0  0  0  0
    4.9054   -3.6192    2.8379 O   0  0  0  0  0  0  0  0  0  0  0  0
    5.6687   -2.6259    2.2373 C   0  0  0  0  0  0  0  0  0  0  0  0
    3.3549   -3.6734    4.6240 C   0  0  0  0  0  0  0  0  0  0  0  0
    3.9487   -4.7902    5.0017 N   0  0  0  0  0  0  0  0  0  0  0  0
    3.9066   -5.2066    6.2805 C   0  0  0  0  0  0  0  0  0  0  0  0
    3.2051   -4.5006    7.2573 C   0  0  0  0  0  0  0  0  0  0  0  0
    2.5543   -3.3222    6.8800 C   0  0  0  0  0  0  0  0  0  0  0  0
    2.5962   -2.9309    5.5466 C   0  0  0  0  0  0  0  0  0  0  0  0
    1.8615   -1.7452    5.1808 C   0  0  0  0  0  0  0  0  0  0  0  0
    2.3739   -0.4963    5.2926 N   0  0  0  0  0  0  0  0  0  0  0  0
    3.7564   -0.1120    5.7411 C   0  0  0  0  0  0  0  0  0  0  0  0
    3.7931    0.4311    7.1021 C   0  0  0  0  0  0  0  0  0  0  0  0
    0.5504   -1.7055    4.6278 C   0  0  0  0  0  0  0  0  0  0  0  0
   -0.3869   -2.8133    4.1986 C   0  0  0  0  0  0  0  0  0  0  0  0
   -1.3182   -3.4060    5.3399 C   0  0  0  0  0  0  0  0  0  0  0  0
   -2.0965   -4.5762    4.7496 C   0  0  0  0  0  0  0  0  0  0  0  0
   -0.5588   -4.0132    6.4538 C   0  0  0  0  0  0  0  0  0  0  0  0
   -2.2596   -2.3688    5.8835 C   0  0  0  0  0  0  0  0  0  0  0  0
   -3.4614   -2.1168    5.0183 O   0  0  0  0  0  0  0  0  0  0  0  0
   -4.7935   -1.9742    5.4966 C   0  0  0  0  0  0  0  0  0  0  0  0
   -5.9117   -1.7512    4.5008 C   0  0  0  0  0  0  0  0  0  0  0  0
   -5.4283   -1.9364    3.1690 N   0  0  0  0  0  0  0  0  0  0  0  0
   -6.3394   -1.8161    2.1318 N   0  0  0  0  0  0  0  0  0  0  0  0
   -6.0879   -0.9789    1.0824 C   0  0  0  0  0  0  0  0  0  0  0  0
   -4.8282   -0.1688    1.0907 C   0  0  0  0  0  0  0  0  0  0  0  0
   -4.2039   -0.1258   -0.2108 N   0  0  0  0  0  0  0  0  0  0  0  0
   -3.1656   -0.9112   -0.5376 C   0  0  0  0  0  0  0  0  0  0  0  0
   -2.5516   -0.6214   -1.8646 C   0  0  0  0  0  0  0  0  0  0  0  0
   -2.9897   -1.5840   -3.0098 C   0  0  0  0  0  0  0  0  0  0  0  0
   -2.5659   -1.1053   -4.3576 C   0  0  0  0  0  0  0  0  0  0  0  0
   -4.4318   -1.9619   -2.9586 C   0  0  0  0  0  0  0  0  0  0  0  0
   -1.1029   -0.6030   -1.6829 N   0  0  0  0  0  0  0  0  0  0  0  0
   -0.5221    0.5284   -1.1469 C   0  0  0  0  0  0  0  0  0  0  0  0
    0.9492    0.7217   -0.8949 C   0  0  0  0  0  0  0  0  0  0  0  0
    1.2616    2.1212   -0.3381 C   0  0  0  0  0  0  0  0  0  0  0  0
    2.6981    2.2836   -0.0443 C   0  0  0  0  0  0  0  0  0  0  0  0
    3.2009    1.1737    0.7716 N   0  0  0  0  0  0  0  0  0  0  0  0
    3.9394    1.3507    1.8959 C   0  0  0  0  0  0  0  0  0  0  0  0
    4.1957    2.6044    2.3984 C   0  0  0  0  0  0  0  0  0  0  0  0
    4.5322    3.6050    2.8762 C   0  0  0  0  0  0  0  0  0  0  0  0
    4.8517    4.8800    3.3394 C   0  0  0  0  0  0  0  0  0  0  0  0
    6.2487    4.9634    3.5867 N   0  0  0  0  0  0  0  0  0  0  0  0
    6.7859    5.5349    4.7392 C   0  0  0  0  0  0  0  0  0  0  0  0
    7.1618    4.5101    2.6038 C   0  0  0  0  0  0  0  0  0  0  0  0
    4.4654    5.9353    2.2942 C   0  0  0  0  0  0  0  0  0  0  0  0
    4.0461    5.1810    4.5783 C   0  0  0  0  0  0  0  0  0  0  0  0
    4.3784    0.3589    2.5034 O   0  0  0  0  0  0  0  0  0  0  0  0
    2.8774   -0.1543    0.3523 C   0  0  0  0  0  0  0  0  0  0  0  0
    1.4167   -0.2839    0.1351 C   0  0  0  0  0  0  0  0  0  0  0  0
   -1.2823    1.4683   -0.8585 O   0  0  0  0  0  0  0  0  0  0  0  0
   -0.3320   -1.8180   -1.9935 C   0  0  0  0  0  0  0  0  0  0  0  0
   -2.7012   -1.7126    0.2508 O   0  0  0  0  0  0  0  0  0  0  0  0
   -5.0957    1.2998    1.5972 C   0  0  0  0  0  0  0  0  0  0  0  0
   -3.8043    2.1492    1.7814 C   0  0  0  0  0  0  0  0  0  0  0  0
   -3.0631    1.5861    2.9427 C   0  0  0  0  0  0  0  0  0  0  0  0
   -1.8930    2.3576    3.2747 N   0  0  0  0  0  0  0  0  0  0  0  0
   -2.1287    3.7933    3.4577 C   0  0  0  0  0  0  0  0  0  0  0  0
   -3.0169    4.3475    2.3311 C   0  0  0  0  0  0  0  0  0  0  0  0
   -4.2011    3.5125    2.0940 O   0  0  0  0  0  0  0  0  0  0  0  0
   -6.8908   -0.8546    0.1456 O   0  0  0  0  0  0  0  0  0  0  0  0
   -7.5210   -2.6753    2.1994 C   0  0  0  0  0  0  0  0  0  0  0  0
   -8.1512   -2.5672    3.6039 C   0  0  0  0  0  0  0  0  0  0  0  0
   -7.1195   -2.7061    4.7245 C   0  0  0  0  0  0  0  0  0  0  0  0
   -5.1153   -2.0119    6.6981 O   0  0  0  0  0  0  0  0  0  0  0  0
    0.3117   -0.3288    4.4665 C   0  0  0  0  0  0  0  0  0  0  0  0
    1.4427    0.3693    4.8791 C   0  0  0  0  0  0  0  0  0  0  0  0
    1.4586    1.7991    4.7757 C   0  0  0  0  0  0  0  0  0  0  0  0
    0.3368    2.4203    4.2309 C   0  0  0  0  0  0  0  0  0  0  0  0
   -0.7850    1.7029    3.8260 C   0  0  0  0  0  0  0  0  0  0  0  0
   -0.8021    0.3021    3.9351 C   0  0  0  0  0  0  0  0  0  0  0  0
    1.6516    0.5550   -2.0815 F   0  0  0  0  0  0  0  0  0  0  0  0
  1  2  1  0  0  0  0
  2  3  1  0  0  0  0
  2  5  1  0  0  0  0
  3  4  1  0  0  0  0
  5  6  4  0  0  0  0
  5 10  4  0  0  0  0
  6  7  4  0  0  0  0
  7  8  4  0  0  0  0
  8  9  4  0  0  0  0
  9 10  4  0  0  0  0
 10 11  1  0  0  0  0
 11 12  4  0  0  0  0
 11 15  4  0  0  0  0
 12 13  1  0  0  0  0
 12 68  4  0  0  0  0
 13 14  1  0  0  0  0
 15 16  1  0  0  0  0
 15 67  4  0  0  0  0
 16 17  1  0  0  0  0
 17 18  1  0  0  0  0
 17 19  1  0  0  0  0
 17 20  1  0  0  0  0
 20 21  1  0  0  0  0
 21 22  1  0  0  0  0
 22 23  1  0  0  0  0
 22 66  2  0  0  0  0
 23 24  1  0  0  0  0
 23 65  1  0  0  0  0
 24 25  1  0  0  0  0
 25 26  1  0  0  0  0
 25 63  1  0  0  0  0
 26 27  1  0  0  0  0
 26 62  2  0  0  0  0
 27 28  1  0  0  0  0
 27 55  1  0  0  0  0
 28 29  1  0  0  0  0
 29 30  1  0  0  0  0
 29 54  2  0  0  0  0
 30 31  1  0  0  0  0
 30 34  1  0  0  0  0
 31 32  1  0  0  0  0
 31 33  1  0  0  0  0
 34 35  1  0  0  0  0
 34 53  1  0  0  0  0
 35 36  1  0  0  0  0
 35 52  2  0  0  0  0
 36 37  1  0  0  0  0
 36 51  1  0  0  0  0
 36 73  1  0  0  0  0
 37 38  1  0  0  0  0
 38 39  1  0  0  0  0
 39 40  1  0  0  0  0
 39 50  1  0  0  0  0
 40 41  1  0  0  0  0
 40 49  2  0  0  0  0
 41 42  1  0  0  0  0
 42 43  1  0  0  0  0
 43 44  1  0  0  0  0
 43 47  1  0  0  0  0
 43 48  1  0  0  0  0
 44 45  1  0  0  0  0
 44 46  1  0  0  0  0
 50 51  1  0  0  0  0
 55 56  1  0  0  0  0
 56 57  1  0  0  0  0
 56 61  1  0  0  0  0
 57 58  1  0  0  0  0
 58 59  1  0  0  0  0
 58 71  1  0  0  0  0
 59 60  1  0  0  0  0
 60 61  1  0  0  0  0
 63 64  1  0  0  0  0
 64 65  1  0  0  0  0
 67 68  4  0  0  0  0
 67 72  4  0  0  0  0
 68 69  4  0  0  0  0
 69 70  4  0  0  0  0
 70 71  4  0  0  0  0
 71 72  4  0  0  0  0
M  END
$$$$
