mol_bioactive_3
  PyMOL3.1          3D                             0

 73 79  0  0  0  0  0  0  0  0999 V2000
   -3.7942   -3.5072    2.7032 C   0  0  0  0  0  0  0  0  0  0  0  0
   -2.9896   -4.6639    3.0177 C   0  0  0  0  0  0  0  0  0  0  0  0
   -1.9242   -4.4510    3.9486 O   0  0  0  0  0  0  0  0  0  0  0  0
   -2.1899   -3.8419    5.1877 C   0  0  0  0  0  0  0  0  0  0  0  0
   -2.3738   -5.4030    1.9058 C   0  0  0  0  0  0  0  0  0  0  0  0
   -2.4760   -6.6772    2.1967 N   0  0  0  0  0  0  0  0  0  0  0  0
   -2.1535   -7.6284    1.3338 C   0  0  0  0  0  0  0  0  0  0  0  0
   -1.7108   -7.3267    0.0601 C   0  0  0  0  0  0  0  0  0  0  0  0
   -1.5836   -5.9858   -0.2978 C   0  0  0  0  0  0  0  0  0  0  0  0
   -1.9001   -4.9997    0.6350 C   0  0  0  0  0  0  0  0  0  0  0  0
   -1.7025   -3.6212    0.2396 C   0  0  0  0  0  0  0  0  0  0  0  0
   -2.5591   -2.9458   -0.5768 N   0  0  0  0  0  0  0  0  0  0  0  0
   -3.8585   -3.4299   -1.1495 C   0  0  0  0  0  0  0  0  0  0  0  0
   -3.7901   -3.7711   -2.5655 C   0  0  0  0  0  0  0  0  0  0  0  0
   -0.6323   -2.7772    0.6384 C   0  0  0  0  0  0  0  0  0  0  0  0
    0.4978   -3.0021    1.6170 C   0  0  0  0  0  0  0  0  0  0  0  0
    1.8227   -3.6537    1.0240 C   0  0  0  0  0  0  0  0  0  0  0  0
    2.8067   -3.8402    2.1720 C   0  0  0  0  0  0  0  0  0  0  0  0
    1.5980   -5.0255    0.4916 C   0  0  0  0  0  0  0  0  0  0  0  0
    2.4516   -2.7935   -0.0522 C   0  0  0  0  0  0  0  0  0  0  0  0
    3.3478   -1.6934    0.4363 O   0  0  0  0  0  0  0  0  0  0  0  0
    4.5820   -1.3182   -0.1712 C   0  0  0  0  0  0  0  0  0  0  0  0
    5.3885   -0.1969    0.4622 C   0  0  0  0  0  0  0  0  0  0  0  0
    4.7727    0.2267    1.6787 N   0  0  0  0  0  0  0  0  0  0  0  0
    5.3714    1.2550    2.3911 N   0  0  0  0  0  0  0  0  0  0  0  0
    4.6600    2.3801    2.7287 C   0  0  0  0  0  0  0  0  0  0  0  0
    3.2257    2.4924    2.2799 C   0  0  0  0  0  0  0  0  0  0  0  0
    2.3852    3.1514    3.2723 N   0  0  0  0  0  0  0  0  0  0  0  0
    1.5989    2.5285    4.1577 C   0  0  0  0  0  0  0  0  0  0  0  0
    0.7134    3.3937    4.9958 C   0  0  0  0  0  0  0  0  0  0  0  0
    1.2220    3.6643    6.4432 C   0  0  0  0  0  0  0  0  0  0  0  0
    0.4787    4.7742    7.1137 C   0  0  0  0  0  0  0  0  0  0  0  0
    2.7029    3.8029    6.5470 C   0  0  0  0  0  0  0  0  0  0  0  0
   -0.6189    2.7957    4.9770 N   0  0  0  0  0  0  0  0  0  0  0  0
   -1.4423    3.0764    3.9060 C   0  0  0  0  0  0  0  0  0  0  0  0
   -2.8050    2.4763    3.6715 C   0  0  0  0  0  0  0  0  0  0  0  0
   -3.5962    3.2108    2.5854 C   0  0  0  0  0  0  0  0  0  0  0  0
   -4.8726    2.5203    2.2710 C   0  0  0  0  0  0  0  0  0  0  0  0
   -4.6596    1.0912    2.0110 N   0  0  0  0  0  0  0  0  0  0  0  0
   -5.1683    0.4421    0.9237 C   0  0  0  0  0  0  0  0  0  0  0  0
   -5.6747    1.1243   -0.1661 C   0  0  0  0  0  0  0  0  0  0  0  0
   -6.1656    1.5752   -1.1168 C   0  0  0  0  0  0  0  0  0  0  0  0
   -6.7180    2.2837   -2.2049 C   0  0  0  0  0  0  0  0  0  0  0  0
   -7.9417    1.6753   -2.6137 N   0  0  0  0  0  0  0  0  0  0  0  0
   -9.1130    1.8819   -1.8582 C   0  0  0  0  0  0  0  0  0  0  0  0
   -7.9747    0.6446   -3.5788 C   0  0  0  0  0  0  0  0  0  0  0  0
   -6.9619    3.7259   -1.7934 C   0  0  0  0  0  0  0  0  0  0  0  0
   -5.7367    2.3232   -3.3497 C   0  0  0  0  0  0  0  0  0  0  0  0
   -5.1401   -0.7934    0.8768 O   0  0  0  0  0  0  0  0  0  0  0  0
   -3.8736    0.3674    2.9556 C   0  0  0  0  0  0  0  0  0  0  0  0
   -2.5806    1.0431    3.2121 C   0  0  0  0  0  0  0  0  0  0  0  0
   -1.0128    3.8705    3.0577 O   0  0  0  0  0  0  0  0  0  0  0  0
   -0.9793    1.8241    6.0253 C   0  0  0  0  0  0  0  0  0  0  0  0
    1.5340    1.3168    4.1642 O   0  0  0  0  0  0  0  0  0  0  0  0
    3.1798    3.3017    0.9289 C   0  0  0  0  0  0  0  0  0  0  0  0
    2.0789    3.1325   -0.1503 C   0  0  0  0  0  0  0  0  0  0  0  0
    1.1796    2.0261    0.1268 C   0  0  0  0  0  0  0  0  0  0  0  0
    0.0473    1.9086   -0.7355 N   0  0  0  0  0  0  0  0  0  0  0  0
   -0.3358    3.0159   -1.5605 C   0  0  0  0  0  0  0  0  0  0  0  0
    0.3863    4.2969   -1.3674 C   0  0  0  0  0  0  0  0  0  0  0  0
    1.3903    4.3806   -0.3351 O   0  0  0  0  0  0  0  0  0  0  0  0
    5.1932    3.3245    3.3296 O   0  0  0  0  0  0  0  0  0  0  0  0
    6.7640    1.0225    2.7761 C   0  0  0  0  0  0  0  0  0  0  0  0
    7.5743    0.5266    1.5588 C   0  0  0  0  0  0  0  0  0  0  0  0
    6.8656   -0.5714    0.7624 C   0  0  0  0  0  0  0  0  0  0  0  0
    5.0360   -1.8311   -1.1991 O   0  0  0  0  0  0  0  0  0  0  0  0
   -0.8963   -1.5693   -0.0298 C   0  0  0  0  0  0  0  0  0  0  0  0
   -2.0740   -1.7134   -0.7586 C   0  0  0  0  0  0  0  0  0  0  0  0
   -2.5674   -0.6012   -1.5164 C   0  0  0  0  0  0  0  0  0  0  0  0
   -1.8405    0.5842   -1.4718 C   0  0  0  0  0  0  0  0  0  0  0  0
   -0.6622    0.7077   -0.7439 C   0  0  0  0  0  0  0  0  0  0  0  0
   -0.1798   -0.3821    0.0026 C   0  0  0  0  0  0  0  0  0  0  0  0
   -3.5663    2.5131    4.8266 F   0  0  0  0  0  0  0  0  0  0  0  0
  1  2  1  0  0  0  0
  2  3  1  0  0  0  0
  2  5  1  0  0  0  0
  3  4  1  0  0  0  0
  5  6  4  0  0  0  0
  5 10  4  0  0  0  0
  6  7  4  0  0  0  0
  7  8  4  0  0  0  0
  8  9  4  0  0  0  0
  9 10  4  0  0  0  0
 10 11  1  0  0  0  0
 11 12  4  0  0  0  0
 11 15  4  0  0  0  0
 12 13  1  0  0  0  0
 12 68  4  0  0  0  0
 13 14  1  0  0  0  0
 15 16  1  0  0  0  0
 15 67  4  0  0  0  0
 16 17  1  0  0  0  0
 17 18  1  0  0  0  0
 17 19  1  0  0  0  0
 17 20  1  0  0  0  0
 20 21  1  0  0  0  0
 21 22  1  0  0  0  0
 22 23  1  0  0  0  0
 22 66  2  0  0  0  0
 23 24  1  0  0  0  0
 23 65  1  0  0  0  0
 24 25  1  0  0  0  0
 25 26  1  0  0  0  0
 25 63  1  0  0  0  0
 26 27  1  0  0  0  0
 26 62  2  0  0  0  0
 27 28  1  0  0  0  0
 27 55  1  0  0  0  0
 28 29  1  0  0  0  0
 29 30  1  0  0  0  0
 29 54  2  0  0  0  0
 30 31  1  0  0  0  0
 30 34  1  0  0  0  0
 31 32  1  0  0  0  0
 31 33  1  0  0  0  0
 34 35  1  0  0  0  0
 34 53  1  0  0  0  0
 35 36  1  0  0  0  0
 35 52  2  0  0  0  0
 36 37  1  0  0  0  0
 36 51  1  0  0  0  0
 36 73  1  0  0  0  0
 37 38  1  0  0  0  0
 38 39  1  0  0  0  0
 39 40  1  0  0  0  0
 39 50  1  0  0  0  0
 40 41  1  0  0  0  0
 40 49  2  0  0  0  0
 41 42  1  0  0  0  0
 42 43  1  0  0  0  0
 43 44  1  0  0  0  0
 43 47  1  0  0  0  0
 43 48  1  0  0  0  0
 44 45  1  0  0  0  0
 44 46  1  0  0  0  0
 50 51  1  0  0  0  0
 55 56  1  0  0  0  0
 56 57  1  0  0  0  0
 56 61  1  0  0  0  0
 57 58  1  0  0  0  0
 58 59  1  0  0  0  0
 58 71  1  0  0  0  0
 59 60  1  0  0  0  0
 60 61  1  0  0  0  0
 63 64  1  0  0  0  0
 64 65  1  0  0  0  0
 67 68  4  0  0  0  0
 67 72  4  0  0  0  0
 68 69  4  0  0  0  0
 69 70  4  0  0  0  0
 70 71  4  0  0  0  0
 71 72  4  0  0  0  0
M  END
$$$$
