mol_ETKDG5_289
  PyMOL3.1          3D                             0

 73 79  0  0  0  0  0  0  0  0999 V2000
    6.6310    4.0431   -2.7005 C   0  0  0  0  0  0  0  0  0  0  0  0
    5.9818    2.9228   -3.4267 C   0  0  0  0  0  0  0  0  0  0  0  0
    5.4251    3.2852   -4.6904 O   0  0  0  0  0  0  0  0  0  0  0  0
    4.1759    3.9458   -4.6542 C   0  0  0  0  0  0  0  0  0  0  0  0
    6.9247    1.8058   -3.6761 C   0  0  0  0  0  0  0  0  0  0  0  0
    7.8003    1.9405   -4.6578 N   0  0  0  0  0  0  0  0  0  0  0  0
    8.7283    0.9911   -4.9048 C   0  0  0  0  0  0  0  0  0  0  0  0
    8.8144   -0.1739   -4.1299 C   0  0  0  0  0  0  0  0  0  0  0  0
    7.8970   -0.3341   -3.0826 C   0  0  0  0  0  0  0  0  0  0  0  0
    6.9267    0.6632   -2.8793 C   0  0  0  0  0  0  0  0  0  0  0  0
    5.9571    0.4627   -1.8225 C   0  0  0  0  0  0  0  0  0  0  0  0
    6.2321    0.6895   -0.5124 N   0  0  0  0  0  0  0  0  0  0  0  0
    7.5106    1.2163    0.0842 C   0  0  0  0  0  0  0  0  0  0  0  0
    8.3104    0.1537    0.7191 C   0  0  0  0  0  0  0  0  0  0  0  0
    4.5960    0.0702   -1.9897 C   0  0  0  0  0  0  0  0  0  0  0  0
    3.7580   -0.1687   -3.2313 C   0  0  0  0  0  0  0  0  0  0  0  0
    3.7929   -1.6417   -3.8341 C   0  0  0  0  0  0  0  0  0  0  0  0
    2.9853   -1.6382   -5.1319 C   0  0  0  0  0  0  0  0  0  0  0  0
    5.1628   -2.0458   -4.2459 C   0  0  0  0  0  0  0  0  0  0  0  0
    3.2141   -2.6849   -2.8788 C   0  0  0  0  0  0  0  0  0  0  0  0
    1.7037   -2.7914   -2.8547 O   0  0  0  0  0  0  0  0  0  0  0  0
    0.9776   -4.0186   -2.7418 C   0  0  0  0  0  0  0  0  0  0  0  0
   -0.5482   -3.9836   -2.7270 C   0  0  0  0  0  0  0  0  0  0  0  0
   -1.0031   -2.6514   -3.0106 N   0  0  0  0  0  0  0  0  0  0  0  0
   -2.3786   -2.4446   -3.0746 N   0  0  0  0  0  0  0  0  0  0  0  0
   -2.9799   -1.5105   -2.2779 C   0  0  0  0  0  0  0  0  0  0  0  0
   -2.1249   -0.6877   -1.3549 C   0  0  0  0  0  0  0  0  0  0  0  0
   -2.5750    0.6854   -1.2822 N   0  0  0  0  0  0  0  0  0  0  0  0
   -2.0359    1.6690   -2.0107 C   0  0  0  0  0  0  0  0  0  0  0  0
   -2.5064    3.0592   -1.7083 C   0  0  0  0  0  0  0  0  0  0  0  0
   -3.5566    3.6291   -2.7318 C   0  0  0  0  0  0  0  0  0  0  0  0
   -4.5726    2.6303   -3.1471 C   0  0  0  0  0  0  0  0  0  0  0  0
   -4.1778    4.9101   -2.2352 C   0  0  0  0  0  0  0  0  0  0  0  0
   -1.2960    3.8846   -1.6302 N   0  0  0  0  0  0  0  0  0  0  0  0
   -0.6070    3.9221   -0.4379 C   0  0  0  0  0  0  0  0  0  0  0  0
    0.6867    4.6721   -0.2105 C   0  0  0  0  0  0  0  0  0  0  0  0
    1.8086    3.7863   -0.7151 C   0  0  0  0  0  0  0  0  0  0  0  0
    3.1365    4.4601   -0.5461 C   0  0  0  0  0  0  0  0  0  0  0  0
    3.3191    4.7933    0.8723 N   0  0  0  0  0  0  0  0  0  0  0  0
    4.4394    4.3377    1.5322 C   0  0  0  0  0  0  0  0  0  0  0  0
    4.4813    4.0793    2.9037 C   0  0  0  0  0  0  0  0  0  0  0  0
    4.7023    3.8109    4.0196 C   0  0  0  0  0  0  0  0  0  0  0  0
    4.8597    3.4916    5.3897 C   0  0  0  0  0  0  0  0  0  0  0  0
    6.2513    3.4980    5.7362 N   0  0  0  0  0  0  0  0  0  0  0  0
    6.9408    4.7367    5.7637 C   0  0  0  0  0  0  0  0  0  0  0  0
    7.0419    2.3316    5.5730 C   0  0  0  0  0  0  0  0  0  0  0  0
    4.0965    4.5012    6.2344 C   0  0  0  0  0  0  0  0  0  0  0  0
    4.2504    2.1356    5.6757 C   0  0  0  0  0  0  0  0  0  0  0  0
    5.4504    4.0845    0.8855 O   0  0  0  0  0  0  0  0  0  0  0  0
    2.2737    5.5795    1.4864 C   0  0  0  0  0  0  0  0  0  0  0  0
    0.9226    4.9887    1.2760 C   0  0  0  0  0  0  0  0  0  0  0  0
   -1.0725    3.2724    0.5127 O   0  0  0  0  0  0  0  0  0  0  0  0
   -0.7969    4.5311   -2.8568 C   0  0  0  0  0  0  0  0  0  0  0  0
   -1.1256    1.4293   -2.7897 O   0  0  0  0  0  0  0  0  0  0  0  0
   -2.0946   -1.3065    0.0939 C   0  0  0  0  0  0  0  0  0  0  0  0
   -1.1154   -0.5906    1.0720 C   0  0  0  0  0  0  0  0  0  0  0  0
    0.2706   -0.9923    0.6909 C   0  0  0  0  0  0  0  0  0  0  0  0
    1.2599   -0.4842    1.6123 N   0  0  0  0  0  0  0  0  0  0  0  0
    0.9933   -0.7570    3.0306 C   0  0  0  0  0  0  0  0  0  0  0  0
   -0.4742   -0.4625    3.3824 C   0  0  0  0  0  0  0  0  0  0  0  0
   -1.4034   -1.0706    2.4108 O   0  0  0  0  0  0  0  0  0  0  0  0
   -4.2139   -1.3463   -2.2816 O   0  0  0  0  0  0  0  0  0  0  0  0
   -3.0956   -3.2441   -4.0752 C   0  0  0  0  0  0  0  0  0  0  0  0
   -2.7077   -4.7317   -3.8924 C   0  0  0  0  0  0  0  0  0  0  0  0
   -1.1820   -4.9371   -3.8024 C   0  0  0  0  0  0  0  0  0  0  0  0
    1.5177   -5.1346   -2.6593 O   0  0  0  0  0  0  0  0  0  0  0  0
    4.1010    0.0286   -0.6739 C   0  0  0  0  0  0  0  0  0  0  0  0
    5.1266    0.4130    0.1960 C   0  0  0  0  0  0  0  0  0  0  0  0
    4.8609    0.4909    1.5983 C   0  0  0  0  0  0  0  0  0  0  0  0
    3.5625    0.1917    2.0265 C   0  0  0  0  0  0  0  0  0  0  0  0
    2.5492   -0.1913    1.1426 C   0  0  0  0  0  0  0  0  0  0  0  0
    2.8139   -0.2728   -0.2355 C   0  0  0  0  0  0  0  0  0  0  0  0
    0.6760    5.8932   -0.8490 F   0  0  0  0  0  0  0  0  0  0  0  0
  1  2  1  0  0  0  0
  2  3  1  0  0  0  0
  2  5  1  0  0  0  0
  3  4  1  0  0  0  0
  5  6  4  0  0  0  0
  5 10  4  0  0  0  0
  6  7  4  0  0  0  0
  7  8  4  0  0  0  0
  8  9  4  0  0  0  0
  9 10  4  0  0  0  0
 10 11  1  0  0  0  0
 11 12  4  0  0  0  0
 11 15  4  0  0  0  0
 12 13  1  0  0  0  0
 12 68  4  0  0  0  0
 13 14  1  0  0  0  0
 15 16  1  0  0  0  0
 15 67  4  0  0  0  0
 16 17  1  0  0  0  0
 17 18  1  0  0  0  0
 17 19  1  0  0  0  0
 17 20  1  0  0  0  0
 20 21  1  0  0  0  0
 21 22  1  0  0  0  0
 22 23  1  0  0  0  0
 22 66  2  0  0  0  0
 23 24  1  0  0  0  0
 23 65  1  0  0  0  0
 24 25  1  0  0  0  0
 25 26  1  0  0  0  0
 25 63  1  0  0  0  0
 26 27  1  0  0  0  0
 26 62  2  0  0  0  0
 27 28  1  0  0  0  0
 27 55  1  0  0  0  0
 28 29  1  0  0  0  0
 29 30  1  0  0  0  0
 29 54  2  0  0  0  0
 30 31  1  0  0  0  0
 30 34  1  0  0  0  0
 31 32  1  0  0  0  0
 31 33  1  0  0  0  0
 34 35  1  0  0  0  0
 34 53  1  0  0  0  0
 35 36  1  0  0  0  0
 35 52  2  0  0  0  0
 36 37  1  0  0  0  0
 36 51  1  0  0  0  0
 36 73  1  0  0  0  0
 37 38  1  0  0  0  0
 38 39  1  0  0  0  0
 39 40  1  0  0  0  0
 39 50  1  0  0  0  0
 40 41  1  0  0  0  0
 40 49  2  0  0  0  0
 41 42  1  0  0  0  0
 42 43  1  0  0  0  0
 43 44  1  0  0  0  0
 43 47  1  0  0  0  0
 43 48  1  0  0  0  0
 44 45  1  0  0  0  0
 44 46  1  0  0  0  0
 50 51  1  0  0  0  0
 55 56  1  0  0  0  0
 56 57  1  0  0  0  0
 56 61  1  0  0  0  0
 57 58  1  0  0  0  0
 58 59  1  0  0  0  0
 58 71  1  0  0  0  0
 59 60  1  0  0  0  0
 60 61  1  0  0  0  0
 63 64  1  0  0  0  0
 64 65  1  0  0  0  0
 67 68  4  0  0  0  0
 67 72  4  0  0  0  0
 68 69  4  0  0  0  0
 69 70  4  0  0  0  0
 70 71  4  0  0  0  0
 71 72  4  0  0  0  0
M  END
$$$$
