mol_ETKDG3_170
  PyMOL3.1          3D                             0

 73 79  0  0  0  0  0  0  0  0999 V2000
    0.7527    4.0419    2.0963 C   0  0  0  0  0  0  0  0  0  0  0  0
   -0.3581    3.2414    1.5571 C   0  0  0  0  0  0  0  0  0  0  0  0
   -1.3591    2.8799    2.4903 O   0  0  0  0  0  0  0  0  0  0  0  0
   -1.0690    1.8329    3.3803 C   0  0  0  0  0  0  0  0  0  0  0  0
   -1.0386    3.8709    0.4132 C   0  0  0  0  0  0  0  0  0  0  0  0
   -1.9493    4.7972    0.6567 N   0  0  0  0  0  0  0  0  0  0  0  0
   -2.5999    5.4289   -0.3453 C   0  0  0  0  0  0  0  0  0  0  0  0
   -2.3288    5.1440   -1.6824 C   0  0  0  0  0  0  0  0  0  0  0  0
   -1.3590    4.1747   -1.9621 C   0  0  0  0  0  0  0  0  0  0  0  0
   -0.7270    3.5286   -0.8872 C   0  0  0  0  0  0  0  0  0  0  0  0
    0.2450    2.5093   -1.1917 C   0  0  0  0  0  0  0  0  0  0  0  0
    1.5216    2.7845   -1.5208 N   0  0  0  0  0  0  0  0  0  0  0  0
    2.1387    4.1415   -1.5146 C   0  0  0  0  0  0  0  0  0  0  0  0
    2.9754    4.5343   -2.5603 C   0  0  0  0  0  0  0  0  0  0  0  0
    0.0468    1.1085   -1.1277 C   0  0  0  0  0  0  0  0  0  0  0  0
   -1.1242    0.3173   -0.6446 C   0  0  0  0  0  0  0  0  0  0  0  0
   -2.2468   -0.0069   -1.6871 C   0  0  0  0  0  0  0  0  0  0  0  0
   -2.9714    1.1939   -2.2448 C   0  0  0  0  0  0  0  0  0  0  0  0
   -3.3191   -0.7693   -0.9632 C   0  0  0  0  0  0  0  0  0  0  0  0
   -1.6726   -0.7873   -2.8086 C   0  0  0  0  0  0  0  0  0  0  0  0
   -1.6837   -2.2877   -2.6254 O   0  0  0  0  0  0  0  0  0  0  0  0
   -2.0314   -3.1982   -3.6554 C   0  0  0  0  0  0  0  0  0  0  0  0
   -1.9491   -4.6747   -3.3771 C   0  0  0  0  0  0  0  0  0  0  0  0
   -1.5781   -4.9271   -2.0189 N   0  0  0  0  0  0  0  0  0  0  0  0
   -1.4713   -6.2548   -1.6250 N   0  0  0  0  0  0  0  0  0  0  0  0
   -0.3381   -6.7131   -1.0111 C   0  0  0  0  0  0  0  0  0  0  0  0
    0.7698   -5.7378   -0.7367 C   0  0  0  0  0  0  0  0  0  0  0  0
    1.4349   -6.0192    0.5179 N   0  0  0  0  0  0  0  0  0  0  0  0
    1.2858   -5.2559    1.6098 C   0  0  0  0  0  0  0  0  0  0  0  0
    2.1658   -5.5695    2.7762 C   0  0  0  0  0  0  0  0  0  0  0  0
    1.4788   -6.3969    3.8943 C   0  0  0  0  0  0  0  0  0  0  0  0
    2.4386   -7.0980    4.7893 C   0  0  0  0  0  0  0  0  0  0  0  0
    0.3283   -7.2255    3.4536 C   0  0  0  0  0  0  0  0  0  0  0  0
    2.6679   -4.2843    3.2704 N   0  0  0  0  0  0  0  0  0  0  0  0
    3.7298   -3.6986    2.6095 C   0  0  0  0  0  0  0  0  0  0  0  0
    4.2702   -2.3223    2.9046 C   0  0  0  0  0  0  0  0  0  0  0  0
    5.5344   -1.9747    2.0961 C   0  0  0  0  0  0  0  0  0  0  0  0
    5.9570   -0.5561    2.3050 C   0  0  0  0  0  0  0  0  0  0  0  0
    4.8209    0.3796    2.1537 N   0  0  0  0  0  0  0  0  0  0  0  0
    4.8442    1.5460    1.4401 C   0  0  0  0  0  0  0  0  0  0  0  0
    5.9170    1.9373    0.6624 C   0  0  0  0  0  0  0  0  0  0  0  0
    6.7703    2.4330    0.0505 C   0  0  0  0  0  0  0  0  0  0  0  0
    7.9088    2.8730   -0.6587 C   0  0  0  0  0  0  0  0  0  0  0  0
    8.5791    3.8809    0.1147 N   0  0  0  0  0  0  0  0  0  0  0  0
    8.2111    5.2363   -0.0123 C   0  0  0  0  0  0  0  0  0  0  0  0
    9.2449    3.5010    1.3079 C   0  0  0  0  0  0  0  0  0  0  0  0
    8.8349    1.7020   -0.9129 C   0  0  0  0  0  0  0  0  0  0  0  0
    7.5170    3.4153   -2.0206 C   0  0  0  0  0  0  0  0  0  0  0  0
    3.8480    2.2906    1.4676 O   0  0  0  0  0  0  0  0  0  0  0  0
    3.6078    0.0344    2.8022 C   0  0  0  0  0  0  0  0  0  0  0  0
    3.1897   -1.3386    2.5013 C   0  0  0  0  0  0  0  0  0  0  0  0
    4.2481   -4.3427    1.6782 O   0  0  0  0  0  0  0  0  0  0  0  0
    1.9505   -3.6162    4.3709 C   0  0  0  0  0  0  0  0  0  0  0  0
    0.5415   -4.2852    1.5804 O   0  0  0  0  0  0  0  0  0  0  0  0
    1.8351   -5.7896   -1.8974 C   0  0  0  0  0  0  0  0  0  0  0  0
    2.9657   -4.7352   -1.7564 C   0  0  0  0  0  0  0  0  0  0  0  0
    2.3963   -3.4242   -2.1742 C   0  0  0  0  0  0  0  0  0  0  0  0
    3.3936   -2.3818   -2.1908 N   0  0  0  0  0  0  0  0  0  0  0  0
    4.6023   -2.7124   -2.9713 C   0  0  0  0  0  0  0  0  0  0  0  0
    5.1173   -4.1114   -2.6027 C   0  0  0  0  0  0  0  0  0  0  0  0
    4.0378   -5.1074   -2.6548 O   0  0  0  0  0  0  0  0  0  0  0  0
   -0.1895   -7.9032   -0.7167 O   0  0  0  0  0  0  0  0  0  0  0  0
   -2.6501   -7.0944   -1.8470 C   0  0  0  0  0  0  0  0  0  0  0  0
   -3.1789   -6.8916   -3.2773 C   0  0  0  0  0  0  0  0  0  0  0  0
   -3.2800   -5.4174   -3.6757 C   0  0  0  0  0  0  0  0  0  0  0  0
   -2.4181   -2.8846   -4.8069 O   0  0  0  0  0  0  0  0  0  0  0  0
    1.2784    0.5662   -1.5303 C   0  0  0  0  0  0  0  0  0  0  0  0
    2.1549    1.6191   -1.7448 C   0  0  0  0  0  0  0  0  0  0  0  0
    3.5049    1.3270   -2.1201 C   0  0  0  0  0  0  0  0  0  0  0  0
    3.8762   -0.0042   -2.2511 C   0  0  0  0  0  0  0  0  0  0  0  0
    2.9837   -1.0491   -2.0376 C   0  0  0  0  0  0  0  0  0  0  0  0
    1.6547   -0.7745   -1.6529 C   0  0  0  0  0  0  0  0  0  0  0  0
    4.5828   -2.2037    4.2450 F   0  0  0  0  0  0  0  0  0  0  0  0
  1  2  1  0  0  0  0
  2  3  1  0  0  0  0
  2  5  1  0  0  0  0
  3  4  1  0  0  0  0
  5  6  4  0  0  0  0
  5 10  4  0  0  0  0
  6  7  4  0  0  0  0
  7  8  4  0  0  0  0
  8  9  4  0  0  0  0
  9 10  4  0  0  0  0
 10 11  1  0  0  0  0
 11 12  4  0  0  0  0
 11 15  4  0  0  0  0
 12 13  1  0  0  0  0
 12 68  4  0  0  0  0
 13 14  1  0  0  0  0
 15 16  1  0  0  0  0
 15 67  4  0  0  0  0
 16 17  1  0  0  0  0
 17 18  1  0  0  0  0
 17 19  1  0  0  0  0
 17 20  1  0  0  0  0
 20 21  1  0  0  0  0
 21 22  1  0  0  0  0
 22 23  1  0  0  0  0
 22 66  2  0  0  0  0
 23 24  1  0  0  0  0
 23 65  1  0  0  0  0
 24 25  1  0  0  0  0
 25 26  1  0  0  0  0
 25 63  1  0  0  0  0
 26 27  1  0  0  0  0
 26 62  2  0  0  0  0
 27 28  1  0  0  0  0
 27 55  1  0  0  0  0
 28 29  1  0  0  0  0
 29 30  1  0  0  0  0
 29 54  2  0  0  0  0
 30 31  1  0  0  0  0
 30 34  1  0  0  0  0
 31 32  1  0  0  0  0
 31 33  1  0  0  0  0
 34 35  1  0  0  0  0
 34 53  1  0  0  0  0
 35 36  1  0  0  0  0
 35 52  2  0  0  0  0
 36 37  1  0  0  0  0
 36 51  1  0  0  0  0
 36 73  1  0  0  0  0
 37 38  1  0  0  0  0
 38 39  1  0  0  0  0
 39 40  1  0  0  0  0
 39 50  1  0  0  0  0
 40 41  1  0  0  0  0
 40 49  2  0  0  0  0
 41 42  1  0  0  0  0
 42 43  1  0  0  0  0
 43 44  1  0  0  0  0
 43 47  1  0  0  0  0
 43 48  1  0  0  0  0
 44 45  1  0  0  0  0
 44 46  1  0  0  0  0
 50 51  1  0  0  0  0
 55 56  1  0  0  0  0
 56 57  1  0  0  0  0
 56 61  1  0  0  0  0
 57 58  1  0  0  0  0
 58 59  1  0  0  0  0
 58 71  1  0  0  0  0
 59 60  1  0  0  0  0
 60 61  1  0  0  0  0
 63 64  1  0  0  0  0
 64 65  1  0  0  0  0
 67 68  4  0  0  0  0
 67 72  4  0  0  0  0
 68 69  4  0  0  0  0
 69 70  4  0  0  0  0
 70 71  4  0  0  0  0
 71 72  4  0  0  0  0
M  END
$$$$
