mol_ETKDG0_334
  PyMOL3.1          3D                             0

 73 79  0  0  0  0  0  0  0  0999 V2000
   -2.3531    0.3517    4.8751 C   0  0  0  0  0  0  0  0  0  0  0  0
   -2.3798    1.3082    3.7459 C   0  0  0  0  0  0  0  0  0  0  0  0
   -3.6841    1.6324    3.2820 O   0  0  0  0  0  0  0  0  0  0  0  0
   -4.3478    0.6496    2.5380 C   0  0  0  0  0  0  0  0  0  0  0  0
   -1.7380    2.5845    4.1039 C   0  0  0  0  0  0  0  0  0  0  0  0
   -2.3783    3.3723    4.9498 N   0  0  0  0  0  0  0  0  0  0  0  0
   -1.8362    4.5267    5.3821 C   0  0  0  0  0  0  0  0  0  0  0  0
   -0.5729    4.9396    4.9656 C   0  0  0  0  0  0  0  0  0  0  0  0
    0.1265    4.1199    4.0783 C   0  0  0  0  0  0  0  0  0  0  0  0
   -0.4883    2.9392    3.6230 C   0  0  0  0  0  0  0  0  0  0  0  0
    0.2300    2.1392    2.6618 C   0  0  0  0  0  0  0  0  0  0  0  0
    1.2596    1.3311    2.9931 N   0  0  0  0  0  0  0  0  0  0  0  0
    1.7987    1.0451    4.3649 C   0  0  0  0  0  0  0  0  0  0  0  0
    3.0683    1.7279    4.6248 C   0  0  0  0  0  0  0  0  0  0  0  0
   -0.0493    2.0448    1.2717 C   0  0  0  0  0  0  0  0  0  0  0  0
   -1.1687    2.5931    0.4437 C   0  0  0  0  0  0  0  0  0  0  0  0
   -0.9862    4.0419   -0.1439 C   0  0  0  0  0  0  0  0  0  0  0  0
   -2.3486    4.4706   -0.6602 C   0  0  0  0  0  0  0  0  0  0  0  0
   -0.6281    5.0279    0.8940 C   0  0  0  0  0  0  0  0  0  0  0  0
    0.0839    4.1016   -1.2254 C   0  0  0  0  0  0  0  0  0  0  0  0
   -0.3013    3.7116   -2.6058 O   0  0  0  0  0  0  0  0  0  0  0  0
   -0.3004    4.6026   -3.7213 C   0  0  0  0  0  0  0  0  0  0  0  0
   -0.4658    4.0103   -5.1008 C   0  0  0  0  0  0  0  0  0  0  0  0
   -1.2297    2.8072   -5.0589 N   0  0  0  0  0  0  0  0  0  0  0  0
   -1.4800    2.1755   -6.2740 N   0  0  0  0  0  0  0  0  0  0  0  0
   -1.1747    0.8555   -6.4759 C   0  0  0  0  0  0  0  0  0  0  0  0
   -0.6043    0.0531   -5.3457 C   0  0  0  0  0  0  0  0  0  0  0  0
   -1.1042   -1.3010   -5.3373 N   0  0  0  0  0  0  0  0  0  0  0  0
   -2.1116   -1.7040   -4.5817 C   0  0  0  0  0  0  0  0  0  0  0  0
   -2.3586   -3.1734   -4.5109 C   0  0  0  0  0  0  0  0  0  0  0  0
   -3.5247   -3.6828   -5.4223 C   0  0  0  0  0  0  0  0  0  0  0  0
   -3.6268   -5.1750   -5.4448 C   0  0  0  0  0  0  0  0  0  0  0  0
   -3.4871   -3.0890   -6.7966 C   0  0  0  0  0  0  0  0  0  0  0  0
   -2.5793   -3.4569   -3.0989 N   0  0  0  0  0  0  0  0  0  0  0  0
   -1.4883   -3.6623   -2.2891 C   0  0  0  0  0  0  0  0  0  0  0  0
   -1.5755   -3.8319   -0.8010 C   0  0  0  0  0  0  0  0  0  0  0  0
   -0.3704   -4.5254   -0.1794 C   0  0  0  0  0  0  0  0  0  0  0  0
   -0.5260   -4.5530    1.3080 C   0  0  0  0  0  0  0  0  0  0  0  0
   -0.7757   -3.1939    1.8169 N   0  0  0  0  0  0  0  0  0  0  0  0
   -0.0308   -2.6404    2.7998 C   0  0  0  0  0  0  0  0  0  0  0  0
    1.0580   -3.3111    3.2489 C   0  0  0  0  0  0  0  0  0  0  0  0
    1.9470   -3.8375    3.7082 C   0  0  0  0  0  0  0  0  0  0  0  0
    3.0017   -4.6483    4.1457 C   0  0  0  0  0  0  0  0  0  0  0  0
    3.5904   -4.1549    5.3338 N   0  0  0  0  0  0  0  0  0  0  0  0
    2.7469   -3.7104    6.3711 C   0  0  0  0  0  0  0  0  0  0  0  0
    4.9156   -4.4431    5.6836 C   0  0  0  0  0  0  0  0  0  0  0  0
    4.0234   -4.7484    3.0371 C   0  0  0  0  0  0  0  0  0  0  0  0
    2.4764   -6.0680    4.3960 C   0  0  0  0  0  0  0  0  0  0  0  0
   -0.3145   -1.5336    3.2796 O   0  0  0  0  0  0  0  0  0  0  0  0
   -1.8388   -2.4514    1.2247 C   0  0  0  0  0  0  0  0  0  0  0  0
   -1.6949   -2.4203   -0.2416 C   0  0  0  0  0  0  0  0  0  0  0  0
   -0.3578   -3.6613   -2.8166 O   0  0  0  0  0  0  0  0  0  0  0  0
   -3.9565   -3.3730   -2.5772 C   0  0  0  0  0  0  0  0  0  0  0  0
   -2.6998   -0.8943   -3.8894 O   0  0  0  0  0  0  0  0  0  0  0  0
    0.9642   -0.0280   -5.4391 C   0  0  0  0  0  0  0  0  0  0  0  0
    1.6177   -0.8581   -4.3017 C   0  0  0  0  0  0  0  0  0  0  0  0
    1.7320    0.0267   -3.1217 C   0  0  0  0  0  0  0  0  0  0  0  0
    2.4110   -0.6279   -2.0284 N   0  0  0  0  0  0  0  0  0  0  0  0
    3.7140   -1.2132   -2.3875 C   0  0  0  0  0  0  0  0  0  0  0  0
    3.6039   -2.0354   -3.6746 C   0  0  0  0  0  0  0  0  0  0  0  0
    2.9337   -1.2746   -4.7348 O   0  0  0  0  0  0  0  0  0  0  0  0
   -1.3340    0.3162   -7.5841 O   0  0  0  0  0  0  0  0  0  0  0  0
   -2.1454    2.9936   -7.2817 C   0  0  0  0  0  0  0  0  0  0  0  0
   -1.3947    4.3290   -7.4333 C   0  0  0  0  0  0  0  0  0  0  0  0
   -1.1354    4.9973   -6.0943 C   0  0  0  0  0  0  0  0  0  0  0  0
   -0.1839    5.8481   -3.6381 O   0  0  0  0  0  0  0  0  0  0  0  0
    0.9346    1.1791    0.7951 C   0  0  0  0  0  0  0  0  0  0  0  0
    1.7017    0.7559    1.8724 C   0  0  0  0  0  0  0  0  0  0  0  0
    2.7500   -0.1932    1.6546 C   0  0  0  0  0  0  0  0  0  0  0  0
    2.9452   -0.6368    0.3490 C   0  0  0  0  0  0  0  0  0  0  0  0
    2.1722   -0.1796   -0.7250 C   0  0  0  0  0  0  0  0  0  0  0  0
    1.1304    0.7283   -0.4939 C   0  0  0  0  0  0  0  0  0  0  0  0
   -2.6590   -4.5959   -0.4491 F   0  0  0  0  0  0  0  0  0  0  0  0
  1  2  1  0  0  0  0
  2  3  1  0  0  0  0
  2  5  1  0  0  0  0
  3  4  1  0  0  0  0
  5  6  4  0  0  0  0
  5 10  4  0  0  0  0
  6  7  4  0  0  0  0
  7  8  4  0  0  0  0
  8  9  4  0  0  0  0
  9 10  4  0  0  0  0
 10 11  1  0  0  0  0
 11 12  4  0  0  0  0
 11 15  4  0  0  0  0
 12 13  1  0  0  0  0
 12 68  4  0  0  0  0
 13 14  1  0  0  0  0
 15 16  1  0  0  0  0
 15 67  4  0  0  0  0
 16 17  1  0  0  0  0
 17 18  1  0  0  0  0
 17 19  1  0  0  0  0
 17 20  1  0  0  0  0
 20 21  1  0  0  0  0
 21 22  1  0  0  0  0
 22 23  1  0  0  0  0
 22 66  2  0  0  0  0
 23 24  1  0  0  0  0
 23 65  1  0  0  0  0
 24 25  1  0  0  0  0
 25 26  1  0  0  0  0
 25 63  1  0  0  0  0
 26 27  1  0  0  0  0
 26 62  2  0  0  0  0
 27 28  1  0  0  0  0
 27 55  1  0  0  0  0
 28 29  1  0  0  0  0
 29 30  1  0  0  0  0
 29 54  2  0  0  0  0
 30 31  1  0  0  0  0
 30 34  1  0  0  0  0
 31 32  1  0  0  0  0
 31 33  1  0  0  0  0
 34 35  1  0  0  0  0
 34 53  1  0  0  0  0
 35 36  1  0  0  0  0
 35 52  2  0  0  0  0
 36 37  1  0  0  0  0
 36 51  1  0  0  0  0
 36 73  1  0  0  0  0
 37 38  1  0  0  0  0
 38 39  1  0  0  0  0
 39 40  1  0  0  0  0
 39 50  1  0  0  0  0
 40 41  1  0  0  0  0
 40 49  2  0  0  0  0
 41 42  1  0  0  0  0
 42 43  1  0  0  0  0
 43 44  1  0  0  0  0
 43 47  1  0  0  0  0
 43 48  1  0  0  0  0
 44 45  1  0  0  0  0
 44 46  1  0  0  0  0
 50 51  1  0  0  0  0
 55 56  1  0  0  0  0
 56 57  1  0  0  0  0
 56 61  1  0  0  0  0
 57 58  1  0  0  0  0
 58 59  1  0  0  0  0
 58 71  1  0  0  0  0
 59 60  1  0  0  0  0
 60 61  1  0  0  0  0
 63 64  1  0  0  0  0
 64 65  1  0  0  0  0
 67 68  4  0  0  0  0
 67 72  4  0  0  0  0
 68 69  4  0  0  0  0
 69 70  4  0  0  0  0
 70 71  4  0  0  0  0
 71 72  4  0  0  0  0
M  END
$$$$
