mol_ETKDG2_113
  PyMOL3.1          3D                             0

 73 79  0  0  0  0  0  0  0  0999 V2000
   -3.3606   -3.1758   -4.2219 C   0  0  0  0  0  0  0  0  0  0  0  0
   -3.7299   -3.2221   -2.7950 C   0  0  0  0  0  0  0  0  0  0  0  0
   -5.0335   -2.7053   -2.4980 O   0  0  0  0  0  0  0  0  0  0  0  0
   -5.2020   -1.3154   -2.5010 C   0  0  0  0  0  0  0  0  0  0  0  0
   -3.6724   -4.5941   -2.2290 C   0  0  0  0  0  0  0  0  0  0  0  0
   -4.7734   -5.3242   -2.2764 N   0  0  0  0  0  0  0  0  0  0  0  0
   -4.8099   -6.5877   -1.7932 C   0  0  0  0  0  0  0  0  0  0  0  0
   -3.6798   -7.1879   -1.2324 C   0  0  0  0  0  0  0  0  0  0  0  0
   -2.4968   -6.4431   -1.1870 C   0  0  0  0  0  0  0  0  0  0  0  0
   -2.5050   -5.1247   -1.6835 C   0  0  0  0  0  0  0  0  0  0  0  0
   -1.2656   -4.3783   -1.5904 C   0  0  0  0  0  0  0  0  0  0  0  0
   -0.1935   -4.6157   -2.3929 N   0  0  0  0  0  0  0  0  0  0  0  0
   -0.1180   -5.5643   -3.5502 C   0  0  0  0  0  0  0  0  0  0  0  0
    0.7035   -6.7420   -3.3156 C   0  0  0  0  0  0  0  0  0  0  0  0
   -0.9931   -3.2997   -0.7050 C   0  0  0  0  0  0  0  0  0  0  0  0
   -1.8873   -2.5500    0.2530 C   0  0  0  0  0  0  0  0  0  0  0  0
   -2.1017   -3.2007    1.6787 C   0  0  0  0  0  0  0  0  0  0  0  0
   -3.1293   -2.3552    2.4182 C   0  0  0  0  0  0  0  0  0  0  0  0
   -2.7015   -4.5535    1.6174 C   0  0  0  0  0  0  0  0  0  0  0  0
   -0.7981   -3.2696    2.4548 C   0  0  0  0  0  0  0  0  0  0  0  0
   -0.3869   -2.0082    3.1555 O   0  0  0  0  0  0  0  0  0  0  0  0
    0.0646   -1.9314    4.4946 C   0  0  0  0  0  0  0  0  0  0  0  0
    0.5013   -0.5777    5.0357 C   0  0  0  0  0  0  0  0  0  0  0  0
    0.0531    0.4771    4.1727 N   0  0  0  0  0  0  0  0  0  0  0  0
    0.3183    1.7984    4.5396 N   0  0  0  0  0  0  0  0  0  0  0  0
    0.9151    2.6756    3.6612 C   0  0  0  0  0  0  0  0  0  0  0  0
    1.3088    2.1759    2.2988 C   0  0  0  0  0  0  0  0  0  0  0  0
    1.0312    3.1469    1.2539 N   0  0  0  0  0  0  0  0  0  0  0  0
    0.0454    2.9903    0.3365 C   0  0  0  0  0  0  0  0  0  0  0  0
    0.0110    3.9853   -0.7782 C   0  0  0  0  0  0  0  0  0  0  0  0
   -0.9884    5.1635   -0.5866 C   0  0  0  0  0  0  0  0  0  0  0  0
   -0.6525    6.3627   -1.4075 C   0  0  0  0  0  0  0  0  0  0  0  0
   -1.3481    5.4701    0.8182 C   0  0  0  0  0  0  0  0  0  0  0  0
   -0.2651    3.2413   -2.0203 N   0  0  0  0  0  0  0  0  0  0  0  0
    0.7838    2.5971   -2.6674 C   0  0  0  0  0  0  0  0  0  0  0  0
    0.6543    1.7578   -3.9317 C   0  0  0  0  0  0  0  0  0  0  0  0
    2.0081    1.4937   -4.6245 C   0  0  0  0  0  0  0  0  0  0  0  0
    1.8608    0.5715   -5.8007 C   0  0  0  0  0  0  0  0  0  0  0  0
    1.1253   -0.6526   -5.4278 N   0  0  0  0  0  0  0  0  0  0  0  0
    1.5601   -1.9309   -5.7109 C   0  0  0  0  0  0  0  0  0  0  0  0
    2.8804   -2.2235   -6.0293 C   0  0  0  0  0  0  0  0  0  0  0  0
    3.9486   -2.5757   -6.3580 C   0  0  0  0  0  0  0  0  0  0  0  0
    5.2863   -2.8028   -6.7031 C   0  0  0  0  0  0  0  0  0  0  0  0
    5.7617   -1.9175   -7.7284 N   0  0  0  0  0  0  0  0  0  0  0  0
    7.0717   -2.0275   -8.2060 C   0  0  0  0  0  0  0  0  0  0  0  0
    4.8824   -1.1261   -8.4787 C   0  0  0  0  0  0  0  0  0  0  0  0
    6.1465   -2.6061   -5.4518 C   0  0  0  0  0  0  0  0  0  0  0  0
    5.4661   -4.2367   -7.1730 C   0  0  0  0  0  0  0  0  0  0  0  0
    0.7516   -2.8799   -5.6284 O   0  0  0  0  0  0  0  0  0  0  0  0
   -0.1077   -0.4669   -4.7218 C   0  0  0  0  0  0  0  0  0  0  0  0
    0.0640    0.4127   -3.5278 C   0  0  0  0  0  0  0  0  0  0  0  0
    1.9138    2.7038   -2.1557 O   0  0  0  0  0  0  0  0  0  0  0  0
   -1.6539    3.1165   -2.4847 C   0  0  0  0  0  0  0  0  0  0  0  0
   -0.6891    2.0106    0.3724 O   0  0  0  0  0  0  0  0  0  0  0  0
    2.8508    1.8238    2.2772 C   0  0  0  0  0  0  0  0  0  0  0  0
    3.3458    1.2328    0.9278 C   0  0  0  0  0  0  0  0  0  0  0  0
    2.8511   -0.1621    0.8432 C   0  0  0  0  0  0  0  0  0  0  0  0
    3.2990   -0.8364   -0.3419 N   0  0  0  0  0  0  0  0  0  0  0  0
    4.7470   -0.7704   -0.5917 C   0  0  0  0  0  0  0  0  0  0  0  0
    5.2942    0.6537   -0.3507 C   0  0  0  0  0  0  0  0  0  0  0  0
    4.7977    1.2363    0.9077 O   0  0  0  0  0  0  0  0  0  0  0  0
    1.1665    3.8518    3.9820 O   0  0  0  0  0  0  0  0  0  0  0  0
   -0.1420    2.1909    5.8748 C   0  0  0  0  0  0  0  0  0  0  0  0
    0.2861    1.1279    6.9175 C   0  0  0  0  0  0  0  0  0  0  0  0
   -0.0431   -0.3001    6.4698 C   0  0  0  0  0  0  0  0  0  0  0  0
    0.1306   -2.9207    5.2727 O   0  0  0  0  0  0  0  0  0  0  0  0
    0.3515   -2.9651   -0.9852 C   0  0  0  0  0  0  0  0  0  0  0  0
    0.7964   -3.7878   -2.0186 C   0  0  0  0  0  0  0  0  0  0  0  0
    2.1399   -3.6318   -2.5122 C   0  0  0  0  0  0  0  0  0  0  0  0
    2.9288   -2.6310   -1.9365 C   0  0  0  0  0  0  0  0  0  0  0  0
    2.4683   -1.8202   -0.9028 C   0  0  0  0  0  0  0  0  0  0  0  0
    1.1483   -1.9723   -0.4182 C   0  0  0  0  0  0  0  0  0  0  0  0
   -0.1491    2.3850   -4.8596 F   0  0  0  0  0  0  0  0  0  0  0  0
  1  2  1  0  0  0  0
  2  3  1  0  0  0  0
  2  5  1  0  0  0  0
  3  4  1  0  0  0  0
  5  6  4  0  0  0  0
  5 10  4  0  0  0  0
  6  7  4  0  0  0  0
  7  8  4  0  0  0  0
  8  9  4  0  0  0  0
  9 10  4  0  0  0  0
 10 11  1  0  0  0  0
 11 12  4  0  0  0  0
 11 15  4  0  0  0  0
 12 13  1  0  0  0  0
 12 68  4  0  0  0  0
 13 14  1  0  0  0  0
 15 16  1  0  0  0  0
 15 67  4  0  0  0  0
 16 17  1  0  0  0  0
 17 18  1  0  0  0  0
 17 19  1  0  0  0  0
 17 20  1  0  0  0  0
 20 21  1  0  0  0  0
 21 22  1  0  0  0  0
 22 23  1  0  0  0  0
 22 66  2  0  0  0  0
 23 24  1  0  0  0  0
 23 65  1  0  0  0  0
 24 25  1  0  0  0  0
 25 26  1  0  0  0  0
 25 63  1  0  0  0  0
 26 27  1  0  0  0  0
 26 62  2  0  0  0  0
 27 28  1  0  0  0  0
 27 55  1  0  0  0  0
 28 29  1  0  0  0  0
 29 30  1  0  0  0  0
 29 54  2  0  0  0  0
 30 31  1  0  0  0  0
 30 34  1  0  0  0  0
 31 32  1  0  0  0  0
 31 33  1  0  0  0  0
 34 35  1  0  0  0  0
 34 53  1  0  0  0  0
 35 36  1  0  0  0  0
 35 52  2  0  0  0  0
 36 37  1  0  0  0  0
 36 51  1  0  0  0  0
 36 73  1  0  0  0  0
 37 38  1  0  0  0  0
 38 39  1  0  0  0  0
 39 40  1  0  0  0  0
 39 50  1  0  0  0  0
 40 41  1  0  0  0  0
 40 49  2  0  0  0  0
 41 42  1  0  0  0  0
 42 43  1  0  0  0  0
 43 44  1  0  0  0  0
 43 47  1  0  0  0  0
 43 48  1  0  0  0  0
 44 45  1  0  0  0  0
 44 46  1  0  0  0  0
 50 51  1  0  0  0  0
 55 56  1  0  0  0  0
 56 57  1  0  0  0  0
 56 61  1  0  0  0  0
 57 58  1  0  0  0  0
 58 59  1  0  0  0  0
 58 71  1  0  0  0  0
 59 60  1  0  0  0  0
 60 61  1  0  0  0  0
 63 64  1  0  0  0  0
 64 65  1  0  0  0  0
 67 68  4  0  0  0  0
 67 72  4  0  0  0  0
 68 69  4  0  0  0  0
 69 70  4  0  0  0  0
 70 71  4  0  0  0  0
 71 72  4  0  0  0  0
M  END
$$$$
