mol_ETKDG1_99
  PyMOL3.1          3D                             0

 73 79  0  0  0  0  0  0  0  0999 V2000
   -5.1181    3.7118    1.1260 C   0  0  0  0  0  0  0  0  0  0  0  0
   -3.9779    4.3109    0.4105 C   0  0  0  0  0  0  0  0  0  0  0  0
   -4.2822    4.7730   -0.8975 O   0  0  0  0  0  0  0  0  0  0  0  0
   -4.3541    3.7917   -1.9026 C   0  0  0  0  0  0  0  0  0  0  0  0
   -3.3479    5.4225    1.1436 C   0  0  0  0  0  0  0  0  0  0  0  0
   -3.8115    6.6468    0.9572 N   0  0  0  0  0  0  0  0  0  0  0  0
   -3.3025    7.7053    1.6281 C   0  0  0  0  0  0  0  0  0  0  0  0
   -2.2702    7.5522    2.5577 C   0  0  0  0  0  0  0  0  0  0  0  0
   -1.7796    6.2650    2.7799 C   0  0  0  0  0  0  0  0  0  0  0  0
   -2.3209    5.1936    2.0461 C   0  0  0  0  0  0  0  0  0  0  0  0
   -1.7696    3.8799    2.2560 C   0  0  0  0  0  0  0  0  0  0  0  0
   -2.1624    3.0593    3.2636 N   0  0  0  0  0  0  0  0  0  0  0  0
   -3.2427    3.3034    4.2810 C   0  0  0  0  0  0  0  0  0  0  0  0
   -2.7227    3.6341    5.6089 C   0  0  0  0  0  0  0  0  0  0  0  0
   -0.8083    3.2363    1.4384 C   0  0  0  0  0  0  0  0  0  0  0  0
   -0.1994    3.6467    0.1249 C   0  0  0  0  0  0  0  0  0  0  0  0
    1.1254    4.5083    0.1884 C   0  0  0  0  0  0  0  0  0  0  0  0
    0.9123    5.9024    0.7405 C   0  0  0  0  0  0  0  0  0  0  0  0
    1.5927    4.7257   -1.2197 C   0  0  0  0  0  0  0  0  0  0  0  0
    2.1809    3.8319    0.9777 C   0  0  0  0  0  0  0  0  0  0  0  0
    3.1345    2.9611    0.1877 O   0  0  0  0  0  0  0  0  0  0  0  0
    4.5059    2.7909    0.5166 C   0  0  0  0  0  0  0  0  0  0  0  0
    5.3463    1.8408   -0.2995 C   0  0  0  0  0  0  0  0  0  0  0  0
    4.5820    1.2581   -1.3698 N   0  0  0  0  0  0  0  0  0  0  0  0
    5.2435    0.3465   -2.1809 N   0  0  0  0  0  0  0  0  0  0  0  0
    4.7542   -0.9167   -2.3595 C   0  0  0  0  0  0  0  0  0  0  0  0
    3.4745   -1.3030   -1.6602 C   0  0  0  0  0  0  0  0  0  0  0  0
    2.7145   -2.2812   -2.4094 N   0  0  0  0  0  0  0  0  0  0  0  0
    1.6051   -2.0041   -3.0866 C   0  0  0  0  0  0  0  0  0  0  0  0
    0.8592   -3.1706   -3.6344 C   0  0  0  0  0  0  0  0  0  0  0  0
    0.9933   -3.2944   -5.1881 C   0  0  0  0  0  0  0  0  0  0  0  0
    0.3055   -4.4904   -5.7390 C   0  0  0  0  0  0  0  0  0  0  0  0
    2.4257   -3.2072   -5.6362 C   0  0  0  0  0  0  0  0  0  0  0  0
   -0.5326   -3.0383   -3.1853 N   0  0  0  0  0  0  0  0  0  0  0  0
   -0.8986   -3.5857   -1.9697 C   0  0  0  0  0  0  0  0  0  0  0  0
   -2.2554   -3.4574   -1.3256 C   0  0  0  0  0  0  0  0  0  0  0  0
   -2.1484   -3.3979    0.2029 C   0  0  0  0  0  0  0  0  0  0  0  0
   -3.4478   -3.1830    0.8007 C   0  0  0  0  0  0  0  0  0  0  0  0
   -4.4915   -4.0506    0.2591 N   0  0  0  0  0  0  0  0  0  0  0  0
   -5.4553   -4.5568    1.0459 C   0  0  0  0  0  0  0  0  0  0  0  0
   -5.3675   -4.5488    2.4377 C   0  0  0  0  0  0  0  0  0  0  0  0
   -5.3943   -4.6589    3.5893 C   0  0  0  0  0  0  0  0  0  0  0  0
   -5.1679   -4.7611    4.9814 C   0  0  0  0  0  0  0  0  0  0  0  0
   -3.9784   -5.4902    5.1895 N   0  0  0  0  0  0  0  0  0  0  0  0
   -3.9751   -6.8606    4.9206 C   0  0  0  0  0  0  0  0  0  0  0  0
   -2.7960   -4.8933    5.6059 C   0  0  0  0  0  0  0  0  0  0  0  0
   -5.0947   -3.3817    5.5979 C   0  0  0  0  0  0  0  0  0  0  0  0
   -6.3059   -5.4697    5.6760 C   0  0  0  0  0  0  0  0  0  0  0  0
   -6.4414   -5.0644    0.5065 O   0  0  0  0  0  0  0  0  0  0  0  0
   -4.5164   -4.3205   -1.1605 C   0  0  0  0  0  0  0  0  0  0  0  0
   -3.1822   -4.5629   -1.7348 C   0  0  0  0  0  0  0  0  0  0  0  0
   -0.0347   -4.2283   -1.3449 O   0  0  0  0  0  0  0  0  0  0  0  0
   -1.4532   -2.2396   -4.0006 C   0  0  0  0  0  0  0  0  0  0  0  0
    1.2006   -0.8641   -3.1402 O   0  0  0  0  0  0  0  0  0  0  0  0
    3.8259   -1.9452   -0.2663 C   0  0  0  0  0  0  0  0  0  0  0  0
    2.5984   -2.2939    0.5958 C   0  0  0  0  0  0  0  0  0  0  0  0
    2.1623   -1.0398    1.2570 C   0  0  0  0  0  0  0  0  0  0  0  0
    1.1012   -1.2685    2.1986 N   0  0  0  0  0  0  0  0  0  0  0  0
    1.3755   -2.3289    3.1808 C   0  0  0  0  0  0  0  0  0  0  0  0
    1.9214   -3.5771    2.4904 C   0  0  0  0  0  0  0  0  0  0  0  0
    3.0271   -3.2508    1.5925 O   0  0  0  0  0  0  0  0  0  0  0  0
    5.3586   -1.7603   -3.0322 O   0  0  0  0  0  0  0  0  0  0  0  0
    6.4340    0.8582   -2.8598 C   0  0  0  0  0  0  0  0  0  0  0  0
    7.3562    1.5515   -1.8277 C   0  0  0  0  0  0  0  0  0  0  0  0
    6.5981    2.5246   -0.9173 C   0  0  0  0  0  0  0  0  0  0  0  0
    5.1007    3.3907    1.4400 O   0  0  0  0  0  0  0  0  0  0  0  0
   -0.5941    2.0037    2.0854 C   0  0  0  0  0  0  0  0  0  0  0  0
   -1.4489    1.9297    3.1793 C   0  0  0  0  0  0  0  0  0  0  0  0
   -1.4691    0.7383    3.9785 C   0  0  0  0  0  0  0  0  0  0  0  0
   -0.6112   -0.2982    3.6140 C   0  0  0  0  0  0  0  0  0  0  0  0
    0.2511   -0.2081    2.5252 C   0  0  0  0  0  0  0  0  0  0  0  0
    0.2572    0.9601    1.7281 C   0  0  0  0  0  0  0  0  0  0  0  0
   -2.8425   -2.2862   -1.6960 F   0  0  0  0  0  0  0  0  0  0  0  0
  1  2  1  0  0  0  0
  2  3  1  0  0  0  0
  2  5  1  0  0  0  0
  3  4  1  0  0  0  0
  5  6  4  0  0  0  0
  5 10  4  0  0  0  0
  6  7  4  0  0  0  0
  7  8  4  0  0  0  0
  8  9  4  0  0  0  0
  9 10  4  0  0  0  0
 10 11  1  0  0  0  0
 11 12  4  0  0  0  0
 11 15  4  0  0  0  0
 12 13  1  0  0  0  0
 12 68  4  0  0  0  0
 13 14  1  0  0  0  0
 15 16  1  0  0  0  0
 15 67  4  0  0  0  0
 16 17  1  0  0  0  0
 17 18  1  0  0  0  0
 17 19  1  0  0  0  0
 17 20  1  0  0  0  0
 20 21  1  0  0  0  0
 21 22  1  0  0  0  0
 22 23  1  0  0  0  0
 22 66  2  0  0  0  0
 23 24  1  0  0  0  0
 23 65  1  0  0  0  0
 24 25  1  0  0  0  0
 25 26  1  0  0  0  0
 25 63  1  0  0  0  0
 26 27  1  0  0  0  0
 26 62  2  0  0  0  0
 27 28  1  0  0  0  0
 27 55  1  0  0  0  0
 28 29  1  0  0  0  0
 29 30  1  0  0  0  0
 29 54  2  0  0  0  0
 30 31  1  0  0  0  0
 30 34  1  0  0  0  0
 31 32  1  0  0  0  0
 31 33  1  0  0  0  0
 34 35  1  0  0  0  0
 34 53  1  0  0  0  0
 35 36  1  0  0  0  0
 35 52  2  0  0  0  0
 36 37  1  0  0  0  0
 36 51  1  0  0  0  0
 36 73  1  0  0  0  0
 37 38  1  0  0  0  0
 38 39  1  0  0  0  0
 39 40  1  0  0  0  0
 39 50  1  0  0  0  0
 40 41  1  0  0  0  0
 40 49  2  0  0  0  0
 41 42  1  0  0  0  0
 42 43  1  0  0  0  0
 43 44  1  0  0  0  0
 43 47  1  0  0  0  0
 43 48  1  0  0  0  0
 44 45  1  0  0  0  0
 44 46  1  0  0  0  0
 50 51  1  0  0  0  0
 55 56  1  0  0  0  0
 56 57  1  0  0  0  0
 56 61  1  0  0  0  0
 57 58  1  0  0  0  0
 58 59  1  0  0  0  0
 58 71  1  0  0  0  0
 59 60  1  0  0  0  0
 60 61  1  0  0  0  0
 63 64  1  0  0  0  0
 64 65  1  0  0  0  0
 67 68  4  0  0  0  0
 67 72  4  0  0  0  0
 68 69  4  0  0  0  0
 69 70  4  0  0  0  0
 70 71  4  0  0  0  0
 71 72  4  0  0  0  0
M  END
$$$$
