mol_ETKDG0_339
  PyMOL3.1          3D                             0

 73 79  0  0  0  0  0  0  0  0999 V2000
    5.3793   -2.6052   -2.4719 C   0  0  0  0  0  0  0  0  0  0  0  0
    5.1437   -1.1756   -2.7620 C   0  0  0  0  0  0  0  0  0  0  0  0
    6.1745   -0.2904   -2.3428 O   0  0  0  0  0  0  0  0  0  0  0  0
    6.1865    0.1107   -0.9981 C   0  0  0  0  0  0  0  0  0  0  0  0
    4.8886   -0.9129   -4.1914 C   0  0  0  0  0  0  0  0  0  0  0  0
    5.9319   -0.7858   -4.9894 N   0  0  0  0  0  0  0  0  0  0  0  0
    5.7873   -0.5757   -6.3114 C   0  0  0  0  0  0  0  0  0  0  0  0
    4.5286   -0.4884   -6.9051 C   0  0  0  0  0  0  0  0  0  0  0  0
    3.4067   -0.6274   -6.0870 C   0  0  0  0  0  0  0  0  0  0  0  0
    3.5959   -0.8245   -4.7144 C   0  0  0  0  0  0  0  0  0  0  0  0
    2.4264   -0.9224   -3.8826 C   0  0  0  0  0  0  0  0  0  0  0  0
    1.5934   -1.9986   -3.8844 N   0  0  0  0  0  0  0  0  0  0  0  0
    1.6665   -3.2323   -4.7445 C   0  0  0  0  0  0  0  0  0  0  0  0
    2.1357   -4.4424   -4.0598 C   0  0  0  0  0  0  0  0  0  0  0  0
    2.0005    0.0410   -2.9316 C   0  0  0  0  0  0  0  0  0  0  0  0
    2.5923    1.3568   -2.5055 C   0  0  0  0  0  0  0  0  0  0  0  0
    2.3020    2.5897   -3.4497 C   0  0  0  0  0  0  0  0  0  0  0  0
    2.9073    3.8362   -2.8268 C   0  0  0  0  0  0  0  0  0  0  0  0
    2.9965    2.4693   -4.7593 C   0  0  0  0  0  0  0  0  0  0  0  0
    0.8319    2.7942   -3.6700 C   0  0  0  0  0  0  0  0  0  0  0  0
    0.1237    3.5944   -2.6169 O   0  0  0  0  0  0  0  0  0  0  0  0
   -0.9262    4.5055   -2.8798 C   0  0  0  0  0  0  0  0  0  0  0  0
   -1.5490    5.2515   -1.7220 C   0  0  0  0  0  0  0  0  0  0  0  0
   -0.7210    5.1501   -0.5595 N   0  0  0  0  0  0  0  0  0  0  0  0
   -1.1054    5.8282    0.5890 N   0  0  0  0  0  0  0  0  0  0  0  0
   -1.2084    5.1908    1.7972 C   0  0  0  0  0  0  0  0  0  0  0  0
   -0.9505    3.7117    1.8602 C   0  0  0  0  0  0  0  0  0  0  0  0
   -0.2330    3.3288    3.0630 N   0  0  0  0  0  0  0  0  0  0  0  0
    1.0723    2.9863    3.0715 C   0  0  0  0  0  0  0  0  0  0  0  0
    1.5970    2.4266    4.3581 C   0  0  0  0  0  0  0  0  0  0  0  0
    2.4518    3.3942    5.2115 C   0  0  0  0  0  0  0  0  0  0  0  0
    2.3767    4.8115    4.8965 C   0  0  0  0  0  0  0  0  0  0  0  0
    2.4178    3.0598    6.6746 C   0  0  0  0  0  0  0  0  0  0  0  0
    2.3634    1.2287    3.9963 N   0  0  0  0  0  0  0  0  0  0  0  0
    1.6823    0.0609    3.7662 C   0  0  0  0  0  0  0  0  0  0  0  0
    2.3223   -1.2194    3.2995 C   0  0  0  0  0  0  0  0  0  0  0  0
    2.6701   -1.0209    1.8435 C   0  0  0  0  0  0  0  0  0  0  0  0
    3.3124   -2.2377    1.2672 C   0  0  0  0  0  0  0  0  0  0  0  0
    2.3915   -3.3580    1.4527 N   0  0  0  0  0  0  0  0  0  0  0  0
    1.9529   -4.0774    0.3784 C   0  0  0  0  0  0  0  0  0  0  0  0
    0.8023   -4.8434    0.4492 C   0  0  0  0  0  0  0  0  0  0  0  0
   -0.1156   -5.5396    0.3999 C   0  0  0  0  0  0  0  0  0  0  0  0
   -1.2634   -6.3410    0.5166 C   0  0  0  0  0  0  0  0  0  0  0  0
   -1.0628   -7.5642   -0.1684 N   0  0  0  0  0  0  0  0  0  0  0  0
   -1.7632   -7.8979   -1.3320 C   0  0  0  0  0  0  0  0  0  0  0  0
   -0.0725   -8.4760    0.2744 C   0  0  0  0  0  0  0  0  0  0  0  0
   -2.4650   -5.5893   -0.0191 C   0  0  0  0  0  0  0  0  0  0  0  0
   -1.5613   -6.6128    1.9873 C   0  0  0  0  0  0  0  0  0  0  0  0
    2.5446   -4.0199   -0.6924 O   0  0  0  0  0  0  0  0  0  0  0  0
    1.9584   -3.6248    2.7989 C   0  0  0  0  0  0  0  0  0  0  0  0
    1.3746   -2.4226    3.4305 C   0  0  0  0  0  0  0  0  0  0  0  0
    0.4469    0.0776    3.9295 O   0  0  0  0  0  0  0  0  0  0  0  0
    3.8166    1.3510    3.7756 C   0  0  0  0  0  0  0  0  0  0  0  0
    1.7238    3.0165    2.0455 O   0  0  0  0  0  0  0  0  0  0  0  0
   -2.3350    2.9460    1.8238 C   0  0  0  0  0  0  0  0  0  0  0  0
   -2.2216    1.4031    1.7354 C   0  0  0  0  0  0  0  0  0  0  0  0
   -1.8774    1.0756    0.3313 C   0  0  0  0  0  0  0  0  0  0  0  0
   -1.8498   -0.3374    0.0926 N   0  0  0  0  0  0  0  0  0  0  0  0
   -3.0455   -1.0716    0.5315 C   0  0  0  0  0  0  0  0  0  0  0  0
   -3.4687   -0.6352    1.9368 C   0  0  0  0  0  0  0  0  0  0  0  0
   -3.5167    0.8297    2.0603 O   0  0  0  0  0  0  0  0  0  0  0  0
   -1.5664    5.7917    2.8211 O   0  0  0  0  0  0  0  0  0  0  0  0
   -1.3176    7.2688    0.4264 C   0  0  0  0  0  0  0  0  0  0  0  0
   -2.2152    7.5258   -0.7980 C   0  0  0  0  0  0  0  0  0  0  0  0
   -1.7618    6.7604   -2.0363 C   0  0  0  0  0  0  0  0  0  0  0  0
   -1.3951    4.7523   -4.0176 O   0  0  0  0  0  0  0  0  0  0  0  0
    0.8619   -0.5412   -2.3608 C   0  0  0  0  0  0  0  0  0  0  0  0
    0.6589   -1.7878   -2.9514 C   0  0  0  0  0  0  0  0  0  0  0  0
   -0.4335   -2.5954   -2.5063 C   0  0  0  0  0  0  0  0  0  0  0  0
   -1.2385   -2.0789   -1.4839 C   0  0  0  0  0  0  0  0  0  0  0  0
   -1.0170   -0.8260   -0.9160 C   0  0  0  0  0  0  0  0  0  0  0  0
    0.0479   -0.0327   -1.3587 C   0  0  0  0  0  0  0  0  0  0  0  0
    3.4282   -1.5201    4.0682 F   0  0  0  0  0  0  0  0  0  0  0  0
  1  2  1  0  0  0  0
  2  3  1  0  0  0  0
  2  5  1  0  0  0  0
  3  4  1  0  0  0  0
  5  6  4  0  0  0  0
  5 10  4  0  0  0  0
  6  7  4  0  0  0  0
  7  8  4  0  0  0  0
  8  9  4  0  0  0  0
  9 10  4  0  0  0  0
 10 11  1  0  0  0  0
 11 12  4  0  0  0  0
 11 15  4  0  0  0  0
 12 13  1  0  0  0  0
 12 68  4  0  0  0  0
 13 14  1  0  0  0  0
 15 16  1  0  0  0  0
 15 67  4  0  0  0  0
 16 17  1  0  0  0  0
 17 18  1  0  0  0  0
 17 19  1  0  0  0  0
 17 20  1  0  0  0  0
 20 21  1  0  0  0  0
 21 22  1  0  0  0  0
 22 23  1  0  0  0  0
 22 66  2  0  0  0  0
 23 24  1  0  0  0  0
 23 65  1  0  0  0  0
 24 25  1  0  0  0  0
 25 26  1  0  0  0  0
 25 63  1  0  0  0  0
 26 27  1  0  0  0  0
 26 62  2  0  0  0  0
 27 28  1  0  0  0  0
 27 55  1  0  0  0  0
 28 29  1  0  0  0  0
 29 30  1  0  0  0  0
 29 54  2  0  0  0  0
 30 31  1  0  0  0  0
 30 34  1  0  0  0  0
 31 32  1  0  0  0  0
 31 33  1  0  0  0  0
 34 35  1  0  0  0  0
 34 53  1  0  0  0  0
 35 36  1  0  0  0  0
 35 52  2  0  0  0  0
 36 37  1  0  0  0  0
 36 51  1  0  0  0  0
 36 73  1  0  0  0  0
 37 38  1  0  0  0  0
 38 39  1  0  0  0  0
 39 40  1  0  0  0  0
 39 50  1  0  0  0  0
 40 41  1  0  0  0  0
 40 49  2  0  0  0  0
 41 42  1  0  0  0  0
 42 43  1  0  0  0  0
 43 44  1  0  0  0  0
 43 47  1  0  0  0  0
 43 48  1  0  0  0  0
 44 45  1  0  0  0  0
 44 46  1  0  0  0  0
 50 51  1  0  0  0  0
 55 56  1  0  0  0  0
 56 57  1  0  0  0  0
 56 61  1  0  0  0  0
 57 58  1  0  0  0  0
 58 59  1  0  0  0  0
 58 71  1  0  0  0  0
 59 60  1  0  0  0  0
 60 61  1  0  0  0  0
 63 64  1  0  0  0  0
 64 65  1  0  0  0  0
 67 68  4  0  0  0  0
 67 72  4  0  0  0  0
 68 69  4  0  0  0  0
 69 70  4  0  0  0  0
 70 71  4  0  0  0  0
 71 72  4  0  0  0  0
M  END
$$$$
