mol_ETKDG0_344
  PyMOL3.1          3D                             0

 73 79  0  0  0  0  0  0  0  0999 V2000
   -4.9761    2.1544    2.8672 C   0  0  0  0  0  0  0  0  0  0  0  0
   -4.6167    2.4498    1.4718 C   0  0  0  0  0  0  0  0  0  0  0  0
   -5.1021    1.5677    0.4974 O   0  0  0  0  0  0  0  0  0  0  0  0
   -4.5846    0.2563    0.4934 C   0  0  0  0  0  0  0  0  0  0  0  0
   -5.0041    3.8094    1.0626 C   0  0  0  0  0  0  0  0  0  0  0  0
   -6.2949    4.0835    0.9180 N   0  0  0  0  0  0  0  0  0  0  0  0
   -6.7153    5.3264    0.5954 C   0  0  0  0  0  0  0  0  0  0  0  0
   -5.8140    6.3784    0.4125 C   0  0  0  0  0  0  0  0  0  0  0  0
   -4.4533    6.1048    0.5671 C   0  0  0  0  0  0  0  0  0  0  0  0
   -4.0579    4.7982    0.8743 C   0  0  0  0  0  0  0  0  0  0  0  0
   -2.6516    4.5254    0.9828 C   0  0  0  0  0  0  0  0  0  0  0  0
   -1.9345    4.7903    2.0904 N   0  0  0  0  0  0  0  0  0  0  0  0
   -2.4406    5.3018    3.4063 C   0  0  0  0  0  0  0  0  0  0  0  0
   -2.0667    6.6735    3.6981 C   0  0  0  0  0  0  0  0  0  0  0  0
   -1.8455    3.8925    0.0033 C   0  0  0  0  0  0  0  0  0  0  0  0
   -2.1865    3.2415   -1.3001 C   0  0  0  0  0  0  0  0  0  0  0  0
   -2.2540    4.1788   -2.5621 C   0  0  0  0  0  0  0  0  0  0  0  0
   -2.3796    3.2776   -3.7670 C   0  0  0  0  0  0  0  0  0  0  0  0
   -3.5024    4.9968   -2.5724 C   0  0  0  0  0  0  0  0  0  0  0  0
   -1.0262    5.0752   -2.6863 C   0  0  0  0  0  0  0  0  0  0  0  0
    0.1141    4.4999   -3.4906 O   0  0  0  0  0  0  0  0  0  0  0  0
    0.7283    5.1483   -4.6073 C   0  0  0  0  0  0  0  0  0  0  0  0
    1.8753    4.4443   -5.3262 C   0  0  0  0  0  0  0  0  0  0  0  0
    1.7236    3.0204   -5.1964 N   0  0  0  0  0  0  0  0  0  0  0  0
    2.6486    2.2189   -5.8582 N   0  0  0  0  0  0  0  0  0  0  0  0
    3.3992    1.2968   -5.1938 C   0  0  0  0  0  0  0  0  0  0  0  0
    3.2320    1.1787   -3.7149 C   0  0  0  0  0  0  0  0  0  0  0  0
    3.3551   -0.1879   -3.2601 N   0  0  0  0  0  0  0  0  0  0  0  0
    2.3133   -0.9521   -2.9523 C   0  0  0  0  0  0  0  0  0  0  0  0
    2.6195   -2.2636   -2.3070 C   0  0  0  0  0  0  0  0  0  0  0  0
    2.4823   -3.4712   -3.2912 C   0  0  0  0  0  0  0  0  0  0  0  0
    2.9616   -4.7539   -2.7072 C   0  0  0  0  0  0  0  0  0  0  0  0
    3.0893   -3.1896   -4.6314 C   0  0  0  0  0  0  0  0  0  0  0  0
    1.7239   -2.3373   -1.1445 N   0  0  0  0  0  0  0  0  0  0  0  0
    2.0654   -1.6461   -0.0066 C   0  0  0  0  0  0  0  0  0  0  0  0
    1.1810   -1.5210    1.2077 C   0  0  0  0  0  0  0  0  0  0  0  0
    0.0785   -0.5498    0.8488 C   0  0  0  0  0  0  0  0  0  0  0  0
   -0.8824   -0.3762    1.9664 C   0  0  0  0  0  0  0  0  0  0  0  0
   -0.1564    0.0253    3.1761 N   0  0  0  0  0  0  0  0  0  0  0  0
   -0.5556    1.1128    3.9016 C   0  0  0  0  0  0  0  0  0  0  0  0
    0.2638    1.6155    4.8870 C   0  0  0  0  0  0  0  0  0  0  0  0
    0.8750    2.1086    5.7273 C   0  0  0  0  0  0  0  0  0  0  0  0
    1.7899    2.5772    6.6804 C   0  0  0  0  0  0  0  0  0  0  0  0
    1.7700    3.9925    6.8261 N   0  0  0  0  0  0  0  0  0  0  0  0
    2.8405    4.6577    7.4359 C   0  0  0  0  0  0  0  0  0  0  0  0
    0.5649    4.7020    6.7318 C   0  0  0  0  0  0  0  0  0  0  0  0
    1.4882    1.9258    8.0289 C   0  0  0  0  0  0  0  0  0  0  0  0
    3.1768    2.1327    6.2649 C   0  0  0  0  0  0  0  0  0  0  0  0
   -1.6254    1.6729    3.6817 O   0  0  0  0  0  0  0  0  0  0  0  0
    0.9825   -0.7657    3.5455 C   0  0  0  0  0  0  0  0  0  0  0  0
    1.9238   -0.9776    2.4335 C   0  0  0  0  0  0  0  0  0  0  0  0
    3.1681   -1.0674    0.0085 O   0  0  0  0  0  0  0  0  0  0  0  0
    0.4273   -3.0190   -1.2931 C   0  0  0  0  0  0  0  0  0  0  0  0
    1.1797   -0.5281   -3.0904 O   0  0  0  0  0  0  0  0  0  0  0  0
    4.3261    2.0425   -2.9842 C   0  0  0  0  0  0  0  0  0  0  0  0
    4.2172    2.0046   -1.4471 C   0  0  0  0  0  0  0  0  0  0  0  0
    3.1190    2.9202   -1.0656 C   0  0  0  0  0  0  0  0  0  0  0  0
    2.9792    2.9975    0.3632 N   0  0  0  0  0  0  0  0  0  0  0  0
    4.2387    3.3687    1.0579 C   0  0  0  0  0  0  0  0  0  0  0  0
    5.3884    2.4809    0.5788 C   0  0  0  0  0  0  0  0  0  0  0  0
    5.4712    2.4678   -0.8900 O   0  0  0  0  0  0  0  0  0  0  0  0
    4.2377    0.5895   -5.7743 O   0  0  0  0  0  0  0  0  0  0  0  0
    2.7115    2.3961   -7.3057 C   0  0  0  0  0  0  0  0  0  0  0  0
    2.9089    3.8990   -7.5996 C   0  0  0  0  0  0  0  0  0  0  0  0
    1.8981    4.7650   -6.8534 C   0  0  0  0  0  0  0  0  0  0  0  0
    0.3920    6.2747   -5.0314 O   0  0  0  0  0  0  0  0  0  0  0  0
   -0.5759    3.8862    0.5777 C   0  0  0  0  0  0  0  0  0  0  0  0
   -0.6726    4.4307    1.8526 C   0  0  0  0  0  0  0  0  0  0  0  0
    0.4916    4.4968    2.6703 C   0  0  0  0  0  0  0  0  0  0  0  0
    1.6761    3.9963    2.1427 C   0  0  0  0  0  0  0  0  0  0  0  0
    1.7570    3.4755    0.8581 C   0  0  0  0  0  0  0  0  0  0  0  0
    0.6052    3.3838    0.0581 C   0  0  0  0  0  0  0  0  0  0  0  0
    0.6956   -2.7650    1.5737 F   0  0  0  0  0  0  0  0  0  0  0  0
  1  2  1  0  0  0  0
  2  3  1  0  0  0  0
  2  5  1  0  0  0  0
  3  4  1  0  0  0  0
  5  6  4  0  0  0  0
  5 10  4  0  0  0  0
  6  7  4  0  0  0  0
  7  8  4  0  0  0  0
  8  9  4  0  0  0  0
  9 10  4  0  0  0  0
 10 11  1  0  0  0  0
 11 12  4  0  0  0  0
 11 15  4  0  0  0  0
 12 13  1  0  0  0  0
 12 68  4  0  0  0  0
 13 14  1  0  0  0  0
 15 16  1  0  0  0  0
 15 67  4  0  0  0  0
 16 17  1  0  0  0  0
 17 18  1  0  0  0  0
 17 19  1  0  0  0  0
 17 20  1  0  0  0  0
 20 21  1  0  0  0  0
 21 22  1  0  0  0  0
 22 23  1  0  0  0  0
 22 66  2  0  0  0  0
 23 24  1  0  0  0  0
 23 65  1  0  0  0  0
 24 25  1  0  0  0  0
 25 26  1  0  0  0  0
 25 63  1  0  0  0  0
 26 27  1  0  0  0  0
 26 62  2  0  0  0  0
 27 28  1  0  0  0  0
 27 55  1  0  0  0  0
 28 29  1  0  0  0  0
 29 30  1  0  0  0  0
 29 54  2  0  0  0  0
 30 31  1  0  0  0  0
 30 34  1  0  0  0  0
 31 32  1  0  0  0  0
 31 33  1  0  0  0  0
 34 35  1  0  0  0  0
 34 53  1  0  0  0  0
 35 36  1  0  0  0  0
 35 52  2  0  0  0  0
 36 37  1  0  0  0  0
 36 51  1  0  0  0  0
 36 73  1  0  0  0  0
 37 38  1  0  0  0  0
 38 39  1  0  0  0  0
 39 40  1  0  0  0  0
 39 50  1  0  0  0  0
 40 41  1  0  0  0  0
 40 49  2  0  0  0  0
 41 42  1  0  0  0  0
 42 43  1  0  0  0  0
 43 44  1  0  0  0  0
 43 47  1  0  0  0  0
 43 48  1  0  0  0  0
 44 45  1  0  0  0  0
 44 46  1  0  0  0  0
 50 51  1  0  0  0  0
 55 56  1  0  0  0  0
 56 57  1  0  0  0  0
 56 61  1  0  0  0  0
 57 58  1  0  0  0  0
 58 59  1  0  0  0  0
 58 71  1  0  0  0  0
 59 60  1  0  0  0  0
 60 61  1  0  0  0  0
 63 64  1  0  0  0  0
 64 65  1  0  0  0  0
 67 68  4  0  0  0  0
 67 72  4  0  0  0  0
 68 69  4  0  0  0  0
 69 70  4  0  0  0  0
 70 71  4  0  0  0  0
 71 72  4  0  0  0  0
M  END
$$$$
