mol_ETKDG5_285
  PyMOL3.1          3D                             0

 73 79  0  0  0  0  0  0  0  0999 V2000
    1.9557    2.9684    1.1805 C   0  0  0  0  0  0  0  0  0  0  0  0
    2.1384    2.9992   -0.2912 C   0  0  0  0  0  0  0  0  0  0  0  0
    1.1384    3.7406   -0.9797 O   0  0  0  0  0  0  0  0  0  0  0  0
   -0.1506    3.1934   -1.0147 C   0  0  0  0  0  0  0  0  0  0  0  0
    3.4265    3.5909   -0.6631 C   0  0  0  0  0  0  0  0  0  0  0  0
    3.5726    4.8749   -0.4122 N   0  0  0  0  0  0  0  0  0  0  0  0
    4.7265    5.5090   -0.6668 C   0  0  0  0  0  0  0  0  0  0  0  0
    5.8252    4.8338   -1.1932 C   0  0  0  0  0  0  0  0  0  0  0  0
    5.7002    3.4685   -1.4578 C   0  0  0  0  0  0  0  0  0  0  0  0
    4.4822    2.8450   -1.2149 C   0  0  0  0  0  0  0  0  0  0  0  0
    4.3739    1.4385   -1.5393 C   0  0  0  0  0  0  0  0  0  0  0  0
    4.8318    0.4392   -0.7361 N   0  0  0  0  0  0  0  0  0  0  0  0
    5.5069    0.5680    0.5866 C   0  0  0  0  0  0  0  0  0  0  0  0
    6.9684    0.4018    0.4601 C   0  0  0  0  0  0  0  0  0  0  0  0
    3.7561    0.8920   -2.6946 C   0  0  0  0  0  0  0  0  0  0  0  0
    3.0194    1.5569   -3.8265 C   0  0  0  0  0  0  0  0  0  0  0  0
    3.9116    2.0266   -5.0502 C   0  0  0  0  0  0  0  0  0  0  0  0
    3.0632    2.9446   -5.9205 C   0  0  0  0  0  0  0  0  0  0  0  0
    5.0633    2.8443   -4.6441 C   0  0  0  0  0  0  0  0  0  0  0  0
    4.4271    0.8521   -5.8672 C   0  0  0  0  0  0  0  0  0  0  0  0
    3.4433    0.1961   -6.7609 O   0  0  0  0  0  0  0  0  0  0  0  0
    3.6778   -0.1565   -8.1139 C   0  0  0  0  0  0  0  0  0  0  0  0
    2.5649   -0.8809   -8.8409 C   0  0  0  0  0  0  0  0  0  0  0  0
    1.3840   -0.7715   -8.0657 N   0  0  0  0  0  0  0  0  0  0  0  0
    0.2262   -1.3298   -8.5617 N   0  0  0  0  0  0  0  0  0  0  0  0
   -0.4850   -2.2167   -7.8121 C   0  0  0  0  0  0  0  0  0  0  0  0
    0.0589   -2.5962   -6.4654 C   0  0  0  0  0  0  0  0  0  0  0  0
   -0.9482   -2.6028   -5.4314 N   0  0  0  0  0  0  0  0  0  0  0  0
   -1.0737   -1.6323   -4.4977 C   0  0  0  0  0  0  0  0  0  0  0  0
   -2.0824   -1.8874   -3.4376 C   0  0  0  0  0  0  0  0  0  0  0  0
   -3.5006   -1.3955   -3.7034 C   0  0  0  0  0  0  0  0  0  0  0  0
   -3.8229   -0.9251   -5.0386 C   0  0  0  0  0  0  0  0  0  0  0  0
   -4.5388   -2.1933   -3.0016 C   0  0  0  0  0  0  0  0  0  0  0  0
   -1.6001   -1.3619   -2.1735 N   0  0  0  0  0  0  0  0  0  0  0  0
   -0.7995   -2.1613   -1.3950 C   0  0  0  0  0  0  0  0  0  0  0  0
   -0.2771   -1.7774   -0.0393 C   0  0  0  0  0  0  0  0  0  0  0  0
    0.0386   -2.9796    0.8438 C   0  0  0  0  0  0  0  0  0  0  0  0
    0.5717   -2.5466    2.1370 C   0  0  0  0  0  0  0  0  0  0  0  0
    1.6558   -1.5696    1.9970 N   0  0  0  0  0  0  0  0  0  0  0  0
    2.7942   -1.6435    2.7234 C   0  0  0  0  0  0  0  0  0  0  0  0
    3.0496   -2.7665    3.4543 C   0  0  0  0  0  0  0  0  0  0  0  0
    3.3153   -3.6194    4.1487 C   0  0  0  0  0  0  0  0  0  0  0  0
    3.4305   -4.8014    4.8885 C   0  0  0  0  0  0  0  0  0  0  0  0
    3.6665   -4.5159    6.2654 N   0  0  0  0  0  0  0  0  0  0  0  0
    4.6743   -5.1370    6.9953 C   0  0  0  0  0  0  0  0  0  0  0  0
    2.7917   -3.6548    6.9686 C   0  0  0  0  0  0  0  0  0  0  0  0
    4.5355   -5.6320    4.2790 C   0  0  0  0  0  0  0  0  0  0  0  0
    2.1504   -5.6273    4.7728 C   0  0  0  0  0  0  0  0  0  0  0  0
    3.6138   -0.7116    2.7064 O   0  0  0  0  0  0  0  0  0  0  0  0
    1.4825   -0.4986    1.0752 C   0  0  0  0  0  0  0  0  0  0  0  0
    0.9830   -0.9597   -0.2238 C   0  0  0  0  0  0  0  0  0  0  0  0
   -0.4880   -3.2700   -1.8496 O   0  0  0  0  0  0  0  0  0  0  0  0
   -1.9134    0.0273   -1.8216 C   0  0  0  0  0  0  0  0  0  0  0  0
   -0.3226   -0.6706   -4.4770 O   0  0  0  0  0  0  0  0  0  0  0  0
    0.7542   -4.0045   -6.5479 C   0  0  0  0  0  0  0  0  0  0  0  0
    1.4168   -4.4826   -5.2315 C   0  0  0  0  0  0  0  0  0  0  0  0
    2.4995   -3.5275   -4.9241 C   0  0  0  0  0  0  0  0  0  0  0  0
    3.2211   -3.8831   -3.7427 N   0  0  0  0  0  0  0  0  0  0  0  0
    3.7318   -5.2509   -3.6998 C   0  0  0  0  0  0  0  0  0  0  0  0
    2.6654   -6.2505   -4.1960 C   0  0  0  0  0  0  0  0  0  0  0  0
    1.9982   -5.8017   -5.4263 O   0  0  0  0  0  0  0  0  0  0  0  0
   -1.5274   -2.7345   -8.2286 O   0  0  0  0  0  0  0  0  0  0  0  0
   -0.1950   -0.8605   -9.8815 C   0  0  0  0  0  0  0  0  0  0  0  0
    1.0019   -0.9410  -10.8530 C   0  0  0  0  0  0  0  0  0  0  0  0
    2.2735   -0.3228  -10.2661 C   0  0  0  0  0  0  0  0  0  0  0  0
    4.7206    0.0847   -8.7407 O   0  0  0  0  0  0  0  0  0  0  0  0
    3.9090   -0.5000   -2.5306 C   0  0  0  0  0  0  0  0  0  0  0  0
    4.5655   -0.7337   -1.3262 C   0  0  0  0  0  0  0  0  0  0  0  0
    4.8007   -2.0846   -0.8999 C   0  0  0  0  0  0  0  0  0  0  0  0
    4.3565   -3.1095   -1.7375 C   0  0  0  0  0  0  0  0  0  0  0  0
    3.6973   -2.8483   -2.9347 C   0  0  0  0  0  0  0  0  0  0  0  0
    3.4693   -1.5226   -3.3410 C   0  0  0  0  0  0  0  0  0  0  0  0
   -1.1979   -1.0391    0.6530 F   0  0  0  0  0  0  0  0  0  0  0  0
  1  2  1  0  0  0  0
  2  3  1  0  0  0  0
  2  5  1  0  0  0  0
  3  4  1  0  0  0  0
  5  6  4  0  0  0  0
  5 10  4  0  0  0  0
  6  7  4  0  0  0  0
  7  8  4  0  0  0  0
  8  9  4  0  0  0  0
  9 10  4  0  0  0  0
 10 11  1  0  0  0  0
 11 12  4  0  0  0  0
 11 15  4  0  0  0  0
 12 13  1  0  0  0  0
 12 68  4  0  0  0  0
 13 14  1  0  0  0  0
 15 16  1  0  0  0  0
 15 67  4  0  0  0  0
 16 17  1  0  0  0  0
 17 18  1  0  0  0  0
 17 19  1  0  0  0  0
 17 20  1  0  0  0  0
 20 21  1  0  0  0  0
 21 22  1  0  0  0  0
 22 23  1  0  0  0  0
 22 66  2  0  0  0  0
 23 24  1  0  0  0  0
 23 65  1  0  0  0  0
 24 25  1  0  0  0  0
 25 26  1  0  0  0  0
 25 63  1  0  0  0  0
 26 27  1  0  0  0  0
 26 62  2  0  0  0  0
 27 28  1  0  0  0  0
 27 55  1  0  0  0  0
 28 29  1  0  0  0  0
 29 30  1  0  0  0  0
 29 54  2  0  0  0  0
 30 31  1  0  0  0  0
 30 34  1  0  0  0  0
 31 32  1  0  0  0  0
 31 33  1  0  0  0  0
 34 35  1  0  0  0  0
 34 53  1  0  0  0  0
 35 36  1  0  0  0  0
 35 52  2  0  0  0  0
 36 37  1  0  0  0  0
 36 51  1  0  0  0  0
 36 73  1  0  0  0  0
 37 38  1  0  0  0  0
 38 39  1  0  0  0  0
 39 40  1  0  0  0  0
 39 50  1  0  0  0  0
 40 41  1  0  0  0  0
 40 49  2  0  0  0  0
 41 42  1  0  0  0  0
 42 43  1  0  0  0  0
 43 44  1  0  0  0  0
 43 47  1  0  0  0  0
 43 48  1  0  0  0  0
 44 45  1  0  0  0  0
 44 46  1  0  0  0  0
 50 51  1  0  0  0  0
 55 56  1  0  0  0  0
 56 57  1  0  0  0  0
 56 61  1  0  0  0  0
 57 58  1  0  0  0  0
 58 59  1  0  0  0  0
 58 71  1  0  0  0  0
 59 60  1  0  0  0  0
 60 61  1  0  0  0  0
 63 64  1  0  0  0  0
 64 65  1  0  0  0  0
 67 68  4  0  0  0  0
 67 72  4  0  0  0  0
 68 69  4  0  0  0  0
 69 70  4  0  0  0  0
 70 71  4  0  0  0  0
 71 72  4  0  0  0  0
M  END
$$$$
