mol_ETKDG0_313
  PyMOL3.1          3D                             0

 73 79  0  0  0  0  0  0  0  0999 V2000
    1.8225   -5.7179   -3.0786 C   0  0  0  0  0  0  0  0  0  0  0  0
    0.4266   -5.2776   -2.9027 C   0  0  0  0  0  0  0  0  0  0  0  0
   -0.1751   -4.6681   -4.0024 O   0  0  0  0  0  0  0  0  0  0  0  0
    0.3208   -3.4036   -4.4087 C   0  0  0  0  0  0  0  0  0  0  0  0
   -0.4569   -6.3432   -2.4021 C   0  0  0  0  0  0  0  0  0  0  0  0
   -0.6820   -7.3859   -3.1862 N   0  0  0  0  0  0  0  0  0  0  0  0
   -1.4340   -8.4276   -2.7661 C   0  0  0  0  0  0  0  0  0  0  0  0
   -1.9935   -8.4572   -1.4834 C   0  0  0  0  0  0  0  0  0  0  0  0
   -1.7557   -7.3668   -0.6336 C   0  0  0  0  0  0  0  0  0  0  0  0
   -0.9961   -6.2908   -1.1222 C   0  0  0  0  0  0  0  0  0  0  0  0
   -0.8104   -5.1321   -0.2791 C   0  0  0  0  0  0  0  0  0  0  0  0
    0.1594   -5.0251    0.6675 N   0  0  0  0  0  0  0  0  0  0  0  0
    1.2233   -6.0293    1.0063 C   0  0  0  0  0  0  0  0  0  0  0  0
    1.0060   -6.7082    2.2877 C   0  0  0  0  0  0  0  0  0  0  0  0
   -1.5372   -3.9177   -0.3794 C   0  0  0  0  0  0  0  0  0  0  0  0
   -2.5834   -3.4782   -1.3654 C   0  0  0  0  0  0  0  0  0  0  0  0
   -4.1045   -3.6881   -0.9890 C   0  0  0  0  0  0  0  0  0  0  0  0
   -4.4521   -5.1350   -0.6978 C   0  0  0  0  0  0  0  0  0  0  0  0
   -4.9264   -3.3142   -2.2005 C   0  0  0  0  0  0  0  0  0  0  0  0
   -4.4987   -2.8414    0.2093 C   0  0  0  0  0  0  0  0  0  0  0  0
   -4.8609   -1.4005   -0.0748 O   0  0  0  0  0  0  0  0  0  0  0  0
   -6.0711   -0.7762    0.3724 C   0  0  0  0  0  0  0  0  0  0  0  0
   -6.2569    0.7175    0.1414 C   0  0  0  0  0  0  0  0  0  0  0  0
   -5.3978    1.1725   -0.9008 N   0  0  0  0  0  0  0  0  0  0  0  0
   -5.4634    2.5140   -1.2764 N   0  0  0  0  0  0  0  0  0  0  0  0
   -4.3323    3.2899   -1.3183 C   0  0  0  0  0  0  0  0  0  0  0  0
   -3.0139    2.6895   -0.9047 C   0  0  0  0  0  0  0  0  0  0  0  0
   -1.9159    3.1288   -1.7515 N   0  0  0  0  0  0  0  0  0  0  0  0
   -1.4284    2.3936   -2.7746 C   0  0  0  0  0  0  0  0  0  0  0  0
   -0.2408    2.9424   -3.4798 C   0  0  0  0  0  0  0  0  0  0  0  0
   -0.5323    3.6002   -4.8695 C   0  0  0  0  0  0  0  0  0  0  0  0
    0.6964    4.1724   -5.5043 C   0  0  0  0  0  0  0  0  0  0  0  0
   -1.6503    4.6007   -4.8029 C   0  0  0  0  0  0  0  0  0  0  0  0
    0.7463    1.8846   -3.5931 N   0  0  0  0  0  0  0  0  0  0  0  0
    1.6891    1.7854   -2.6139 C   0  0  0  0  0  0  0  0  0  0  0  0
    2.7855    0.7625   -2.5789 C   0  0  0  0  0  0  0  0  0  0  0  0
    4.1428    1.4116   -2.3501 C   0  0  0  0  0  0  0  0  0  0  0  0
    5.1796    0.3561   -2.3019 C   0  0  0  0  0  0  0  0  0  0  0  0
    4.8057   -0.6746   -1.3175 N   0  0  0  0  0  0  0  0  0  0  0  0
    5.6556   -1.0345   -0.3429 C   0  0  0  0  0  0  0  0  0  0  0  0
    6.7213   -0.2073   -0.0670 C   0  0  0  0  0  0  0  0  0  0  0  0
    7.6300    0.4741    0.1436 C   0  0  0  0  0  0  0  0  0  0  0  0
    8.5959    1.5124    0.2382 C   0  0  0  0  0  0  0  0  0  0  0  0
    8.4174    2.4111   -0.8620 N   0  0  0  0  0  0  0  0  0  0  0  0
    7.7047    3.5977   -0.6986 C   0  0  0  0  0  0  0  0  0  0  0  0
    8.8230    2.0388   -2.1561 C   0  0  0  0  0  0  0  0  0  0  0  0
    9.9954    0.9583    0.2106 C   0  0  0  0  0  0  0  0  0  0  0  0
    8.4266    2.2602    1.5370 C   0  0  0  0  0  0  0  0  0  0  0  0
    5.4402   -2.0594    0.3170 O   0  0  0  0  0  0  0  0  0  0  0  0
    3.5031   -1.2728   -1.4232 C   0  0  0  0  0  0  0  0  0  0  0  0
    2.4613   -0.2355   -1.4779 C   0  0  0  0  0  0  0  0  0  0  0  0
    1.6355    2.6030   -1.6770 O   0  0  0  0  0  0  0  0  0  0  0  0
    0.6130    0.9132   -4.6901 C   0  0  0  0  0  0  0  0  0  0  0  0
   -1.8940    1.2955   -3.0038 O   0  0  0  0  0  0  0  0  0  0  0  0
   -2.7274    3.0556    0.6041 C   0  0  0  0  0  0  0  0  0  0  0  0
   -1.4890    2.3718    1.2483 C   0  0  0  0  0  0  0  0  0  0  0  0
   -1.7993    0.9223    1.4525 C   0  0  0  0  0  0  0  0  0  0  0  0
   -0.7551    0.2251    2.1788 N   0  0  0  0  0  0  0  0  0  0  0  0
   -0.3254    0.8547    3.4251 C   0  0  0  0  0  0  0  0  0  0  0  0
   -0.1496    2.3732    3.2503 C   0  0  0  0  0  0  0  0  0  0  0  0
   -1.2842    2.9917    2.5464 O   0  0  0  0  0  0  0  0  0  0  0  0
   -4.3805    4.4939   -1.6350 O   0  0  0  0  0  0  0  0  0  0  0  0
   -6.7852    2.9993   -1.6735 C   0  0  0  0  0  0  0  0  0  0  0  0
   -7.8232    2.5905   -0.6066 C   0  0  0  0  0  0  0  0  0  0  0  0
   -7.7189    1.1141   -0.2086 C   0  0  0  0  0  0  0  0  0  0  0  0
   -6.9987   -1.3831    0.9446 O   0  0  0  0  0  0  0  0  0  0  0  0
   -0.9629   -3.1002    0.6119 C   0  0  0  0  0  0  0  0  0  0  0  0
    0.0702   -3.8042    1.2243 C   0  0  0  0  0  0  0  0  0  0  0  0
    0.8571   -3.1541    2.2386 C   0  0  0  0  0  0  0  0  0  0  0  0
    0.5452   -1.8181    2.5448 C   0  0  0  0  0  0  0  0  0  0  0  0
   -0.4901   -1.1247    1.8947 C   0  0  0  0  0  0  0  0  0  0  0  0
   -1.2649   -1.7807    0.9296 C   0  0  0  0  0  0  0  0  0  0  0  0
    2.9160    0.0720   -3.7427 F   0  0  0  0  0  0  0  0  0  0  0  0
  1  2  1  0  0  0  0
  2  3  1  0  0  0  0
  2  5  1  0  0  0  0
  3  4  1  0  0  0  0
  5  6  4  0  0  0  0
  5 10  4  0  0  0  0
  6  7  4  0  0  0  0
  7  8  4  0  0  0  0
  8  9  4  0  0  0  0
  9 10  4  0  0  0  0
 10 11  1  0  0  0  0
 11 12  4  0  0  0  0
 11 15  4  0  0  0  0
 12 13  1  0  0  0  0
 12 68  4  0  0  0  0
 13 14  1  0  0  0  0
 15 16  1  0  0  0  0
 15 67  4  0  0  0  0
 16 17  1  0  0  0  0
 17 18  1  0  0  0  0
 17 19  1  0  0  0  0
 17 20  1  0  0  0  0
 20 21  1  0  0  0  0
 21 22  1  0  0  0  0
 22 23  1  0  0  0  0
 22 66  2  0  0  0  0
 23 24  1  0  0  0  0
 23 65  1  0  0  0  0
 24 25  1  0  0  0  0
 25 26  1  0  0  0  0
 25 63  1  0  0  0  0
 26 27  1  0  0  0  0
 26 62  2  0  0  0  0
 27 28  1  0  0  0  0
 27 55  1  0  0  0  0
 28 29  1  0  0  0  0
 29 30  1  0  0  0  0
 29 54  2  0  0  0  0
 30 31  1  0  0  0  0
 30 34  1  0  0  0  0
 31 32  1  0  0  0  0
 31 33  1  0  0  0  0
 34 35  1  0  0  0  0
 34 53  1  0  0  0  0
 35 36  1  0  0  0  0
 35 52  2  0  0  0  0
 36 37  1  0  0  0  0
 36 51  1  0  0  0  0
 36 73  1  0  0  0  0
 37 38  1  0  0  0  0
 38 39  1  0  0  0  0
 39 40  1  0  0  0  0
 39 50  1  0  0  0  0
 40 41  1  0  0  0  0
 40 49  2  0  0  0  0
 41 42  1  0  0  0  0
 42 43  1  0  0  0  0
 43 44  1  0  0  0  0
 43 47  1  0  0  0  0
 43 48  1  0  0  0  0
 44 45  1  0  0  0  0
 44 46  1  0  0  0  0
 50 51  1  0  0  0  0
 55 56  1  0  0  0  0
 56 57  1  0  0  0  0
 56 61  1  0  0  0  0
 57 58  1  0  0  0  0
 58 59  1  0  0  0  0
 58 71  1  0  0  0  0
 59 60  1  0  0  0  0
 60 61  1  0  0  0  0
 63 64  1  0  0  0  0
 64 65  1  0  0  0  0
 67 68  4  0  0  0  0
 67 72  4  0  0  0  0
 68 69  4  0  0  0  0
 69 70  4  0  0  0  0
 70 71  4  0  0  0  0
 71 72  4  0  0  0  0
M  END
$$$$
