mol_bioactive_48
  PyMOL3.1          3D                             0

 73 79  0  0  0  0  0  0  0  0999 V2000
   -0.5795   -5.6031   -1.6077 C   0  0  0  0  0  0  0  0  0  0  0  0
   -1.9837   -5.2379   -1.8123 C   0  0  0  0  0  0  0  0  0  0  0  0
   -2.8968   -6.1221   -1.1497 O   0  0  0  0  0  0  0  0  0  0  0  0
   -3.0845   -5.9441    0.2223 C   0  0  0  0  0  0  0  0  0  0  0  0
   -2.3607   -5.1618   -3.2492 C   0  0  0  0  0  0  0  0  0  0  0  0
   -2.6681   -6.2857   -3.8629 N   0  0  0  0  0  0  0  0  0  0  0  0
   -3.0568   -6.2984   -5.1579 C   0  0  0  0  0  0  0  0  0  0  0  0
   -3.1237   -5.1279   -5.9156 C   0  0  0  0  0  0  0  0  0  0  0  0
   -2.7964   -3.9241   -5.2880 C   0  0  0  0  0  0  0  0  0  0  0  0
   -2.3849   -3.9526   -3.9522 C   0  0  0  0  0  0  0  0  0  0  0  0
   -2.0101   -2.7058   -3.3392 C   0  0  0  0  0  0  0  0  0  0  0  0
   -2.9150   -1.8650   -2.7827 N   0  0  0  0  0  0  0  0  0  0  0  0
   -4.3997   -2.0662   -2.6460 C   0  0  0  0  0  0  0  0  0  0  0  0
   -5.2057   -1.2235   -3.5255 C   0  0  0  0  0  0  0  0  0  0  0  0
   -0.6808   -2.2106   -3.1710 C   0  0  0  0  0  0  0  0  0  0  0  0
    0.6707   -2.8145   -3.4361 C   0  0  0  0  0  0  0  0  0  0  0  0
    1.3010   -2.7304   -4.8804 C   0  0  0  0  0  0  0  0  0  0  0  0
    0.4750   -3.4425   -5.9220 C   0  0  0  0  0  0  0  0  0  0  0  0
    2.5994   -3.4916   -4.8389 C   0  0  0  0  0  0  0  0  0  0  0  0
    1.5518   -1.2965   -5.3339 C   0  0  0  0  0  0  0  0  0  0  0  0
    2.8640   -0.7045   -4.8708 O   0  0  0  0  0  0  0  0  0  0  0  0
    3.7859   -0.0141   -5.7047 C   0  0  0  0  0  0  0  0  0  0  0  0
    5.0200    0.6081   -5.0642 C   0  0  0  0  0  0  0  0  0  0  0  0
    5.2775    0.0213   -3.7868 N   0  0  0  0  0  0  0  0  0  0  0  0
    6.4049    0.4009   -3.0762 N   0  0  0  0  0  0  0  0  0  0  0  0
    6.3083    0.7657   -1.7563 C   0  0  0  0  0  0  0  0  0  0  0  0
    4.9540    0.8090   -1.0845 C   0  0  0  0  0  0  0  0  0  0  0  0
    5.0236    0.2987    0.2826 N   0  0  0  0  0  0  0  0  0  0  0  0
    4.6573   -0.9377    0.6627 C   0  0  0  0  0  0  0  0  0  0  0  0
    4.6929   -1.2236    2.1366 C   0  0  0  0  0  0  0  0  0  0  0  0
    5.9039   -2.1108    2.5761 C   0  0  0  0  0  0  0  0  0  0  0  0
    6.0976   -2.1484    4.0518 C   0  0  0  0  0  0  0  0  0  0  0  0
    7.1579   -1.8208    1.8287 C   0  0  0  0  0  0  0  0  0  0  0  0
    3.3972   -1.8373    2.4758 N   0  0  0  0  0  0  0  0  0  0  0  0
    2.3072   -1.0208    2.6772 C   0  0  0  0  0  0  0  0  0  0  0  0
    0.8985   -1.4994    2.9563 C   0  0  0  0  0  0  0  0  0  0  0  0
    0.2941   -1.9094    1.6334 C   0  0  0  0  0  0  0  0  0  0  0  0
   -1.0904   -2.4215    1.8085 C   0  0  0  0  0  0  0  0  0  0  0  0
   -1.9088   -1.4077    2.4838 N   0  0  0  0  0  0  0  0  0  0  0  0
   -3.1092   -1.0326    1.9437 C   0  0  0  0  0  0  0  0  0  0  0  0
   -3.7192    0.1737    2.2483 C   0  0  0  0  0  0  0  0  0  0  0  0
   -4.3519    1.1263    2.4442 C   0  0  0  0  0  0  0  0  0  0  0  0
   -4.9545    2.3611    2.7572 C   0  0  0  0  0  0  0  0  0  0  0  0
   -5.6716    2.3701    3.9913 N   0  0  0  0  0  0  0  0  0  0  0  0
   -5.3850    1.4452    4.9915 C   0  0  0  0  0  0  0  0  0  0  0  0
   -6.4958    3.4443    4.3517 C   0  0  0  0  0  0  0  0  0  0  0  0
   -3.8509    3.4194    2.8261 C   0  0  0  0  0  0  0  0  0  0  0  0
   -5.9001    2.7357    1.6446 C   0  0  0  0  0  0  0  0  0  0  0  0
   -3.6506   -1.7626    1.1171 O   0  0  0  0  0  0  0  0  0  0  0  0
   -1.3872   -0.8609    3.7045 C   0  0  0  0  0  0  0  0  0  0  0  0
    0.0125   -0.4100    3.5866 C   0  0  0  0  0  0  0  0  0  0  0  0
    2.4944    0.2039    2.6071 O   0  0  0  0  0  0  0  0  0  0  0  0
    3.2787   -3.3033    2.4572 C   0  0  0  0  0  0  0  0  0  0  0  0
    4.2047   -1.7178   -0.1453 O   0  0  0  0  0  0  0  0  0  0  0  0
    4.4404    2.2996   -1.0580 C   0  0  0  0  0  0  0  0  0  0  0  0
    2.9436    2.7049   -0.9950 C   0  0  0  0  0  0  0  0  0  0  0  0
    2.0026    1.6097   -1.0976 C   0  0  0  0  0  0  0  0  0  0  0  0
    0.6110    1.9672   -0.9665 N   0  0  0  0  0  0  0  0  0  0  0  0
    0.2486    3.2143   -0.3749 C   0  0  0  0  0  0  0  0  0  0  0  0
    1.3454    4.0452    0.1903 C   0  0  0  0  0  0  0  0  0  0  0  0
    2.6967    3.5044    0.1820 O   0  0  0  0  0  0  0  0  0  0  0  0
    7.3101    1.1069   -1.1108 O   0  0  0  0  0  0  0  0  0  0  0  0
    7.6779    0.3263   -3.7950 C   0  0  0  0  0  0  0  0  0  0  0  0
    7.5375    0.9589   -5.1959 C   0  0  0  0  0  0  0  0  0  0  0  0
    6.2966    0.4853   -5.9393 C   0  0  0  0  0  0  0  0  0  0  0  0
    3.6440    0.1137   -6.9340 O   0  0  0  0  0  0  0  0  0  0  0  0
   -0.8831   -0.9911   -2.5133 C   0  0  0  0  0  0  0  0  0  0  0  0
   -2.2487   -0.8160   -2.2938 C   0  0  0  0  0  0  0  0  0  0  0  0
   -2.7002    0.3537   -1.5934 C   0  0  0  0  0  0  0  0  0  0  0  0
   -1.7284    1.2602   -1.1683 C   0  0  0  0  0  0  0  0  0  0  0  0
   -0.3558    1.0544   -1.4031 C   0  0  0  0  0  0  0  0  0  0  0  0
    0.0692   -0.0886   -2.0805 C   0  0  0  0  0  0  0  0  0  0  0  0
    0.9040   -2.5417    3.8635 F   0  0  0  0  0  0  0  0  0  0  0  0
  1  2  1  0  0  0  0
  2  3  1  0  0  0  0
  2  5  1  0  0  0  0
  3  4  1  0  0  0  0
  5  6  4  0  0  0  0
  5 10  4  0  0  0  0
  6  7  4  0  0  0  0
  7  8  4  0  0  0  0
  8  9  4  0  0  0  0
  9 10  4  0  0  0  0
 10 11  1  0  0  0  0
 11 12  4  0  0  0  0
 11 15  4  0  0  0  0
 12 13  1  0  0  0  0
 12 68  4  0  0  0  0
 13 14  1  0  0  0  0
 15 16  1  0  0  0  0
 15 67  4  0  0  0  0
 16 17  1  0  0  0  0
 17 18  1  0  0  0  0
 17 19  1  0  0  0  0
 17 20  1  0  0  0  0
 20 21  1  0  0  0  0
 21 22  1  0  0  0  0
 22 23  1  0  0  0  0
 22 66  2  0  0  0  0
 23 24  1  0  0  0  0
 23 65  1  0  0  0  0
 24 25  1  0  0  0  0
 25 26  1  0  0  0  0
 25 63  1  0  0  0  0
 26 27  1  0  0  0  0
 26 62  2  0  0  0  0
 27 28  1  0  0  0  0
 27 55  1  0  0  0  0
 28 29  1  0  0  0  0
 29 30  1  0  0  0  0
 29 54  2  0  0  0  0
 30 31  1  0  0  0  0
 30 34  1  0  0  0  0
 31 32  1  0  0  0  0
 31 33  1  0  0  0  0
 34 35  1  0  0  0  0
 34 53  1  0  0  0  0
 35 36  1  0  0  0  0
 35 52  2  0  0  0  0
 36 37  1  0  0  0  0
 36 51  1  0  0  0  0
 36 73  1  0  0  0  0
 37 38  1  0  0  0  0
 38 39  1  0  0  0  0
 39 40  1  0  0  0  0
 39 50  1  0  0  0  0
 40 41  1  0  0  0  0
 40 49  2  0  0  0  0
 41 42  1  0  0  0  0
 42 43  1  0  0  0  0
 43 44  1  0  0  0  0
 43 47  1  0  0  0  0
 43 48  1  0  0  0  0
 44 45  1  0  0  0  0
 44 46  1  0  0  0  0
 50 51  1  0  0  0  0
 55 56  1  0  0  0  0
 56 57  1  0  0  0  0
 56 61  1  0  0  0  0
 57 58  1  0  0  0  0
 58 59  1  0  0  0  0
 58 71  1  0  0  0  0
 59 60  1  0  0  0  0
 60 61  1  0  0  0  0
 63 64  1  0  0  0  0
 64 65  1  0  0  0  0
 67 68  4  0  0  0  0
 67 72  4  0  0  0  0
 68 69  4  0  0  0  0
 69 70  4  0  0  0  0
 70 71  4  0  0  0  0
 71 72  4  0  0  0  0
M  END
$$$$
