mol_ETKDG3_192
  PyMOL3.1          3D                             0

 73 79  0  0  0  0  0  0  0  0999 V2000
   -4.1961    6.0898    0.9095 C   0  0  0  0  0  0  0  0  0  0  0  0
   -3.2336    5.6278   -0.1160 C   0  0  0  0  0  0  0  0  0  0  0  0
   -3.6840    5.6822   -1.4572 O   0  0  0  0  0  0  0  0  0  0  0  0
   -4.6995    4.7868   -1.8569 C   0  0  0  0  0  0  0  0  0  0  0  0
   -1.9502    6.3612   -0.0754 C   0  0  0  0  0  0  0  0  0  0  0  0
   -1.9186    7.5768   -0.5992 N   0  0  0  0  0  0  0  0  0  0  0  0
   -0.7947    8.3177   -0.5846 C   0  0  0  0  0  0  0  0  0  0  0  0
    0.3871    7.8478   -0.0022 C   0  0  0  0  0  0  0  0  0  0  0  0
    0.3702    6.5739    0.5740 C   0  0  0  0  0  0  0  0  0  0  0  0
   -0.8037    5.8189    0.5223 C   0  0  0  0  0  0  0  0  0  0  0  0
   -0.7966    4.4861    1.0884 C   0  0  0  0  0  0  0  0  0  0  0  0
   -0.8774    4.2226    2.4210 N   0  0  0  0  0  0  0  0  0  0  0  0
   -0.9069    5.2038    3.5639 C   0  0  0  0  0  0  0  0  0  0  0  0
   -2.2707    5.4557    4.0974 C   0  0  0  0  0  0  0  0  0  0  0  0
   -0.7599    3.2806    0.3450 C   0  0  0  0  0  0  0  0  0  0  0  0
   -0.7072    3.0286   -1.1295 C   0  0  0  0  0  0  0  0  0  0  0  0
    0.7337    3.0773   -1.7886 C   0  0  0  0  0  0  0  0  0  0  0  0
    0.5880    2.5574   -3.1960 C   0  0  0  0  0  0  0  0  0  0  0  0
    1.2043    4.4864   -1.9580 C   0  0  0  0  0  0  0  0  0  0  0  0
    1.7835    2.2821   -1.0266 C   0  0  0  0  0  0  0  0  0  0  0  0
    1.9597    0.8408   -1.4134 O   0  0  0  0  0  0  0  0  0  0  0  0
    3.2195    0.2023   -1.6337 C   0  0  0  0  0  0  0  0  0  0  0  0
    3.2316   -1.2745   -2.0209 C   0  0  0  0  0  0  0  0  0  0  0  0
    2.0209   -1.6103   -2.6996 N   0  0  0  0  0  0  0  0  0  0  0  0
    1.8760   -2.8974   -3.2084 N   0  0  0  0  0  0  0  0  0  0  0  0
    0.7788   -3.6559   -2.9116 C   0  0  0  0  0  0  0  0  0  0  0  0
   -0.2386   -3.1039   -1.9664 C   0  0  0  0  0  0  0  0  0  0  0  0
   -1.5890   -3.3649   -2.4162 N   0  0  0  0  0  0  0  0  0  0  0  0
   -2.3766   -2.4222   -2.9609 C   0  0  0  0  0  0  0  0  0  0  0  0
   -3.8002   -2.8120   -3.1992 C   0  0  0  0  0  0  0  0  0  0  0  0
   -4.1557   -3.1835   -4.6644 C   0  0  0  0  0  0  0  0  0  0  0  0
   -5.3084   -4.1338   -4.7453 C   0  0  0  0  0  0  0  0  0  0  0  0
   -2.9969   -3.5579   -5.5129 C   0  0  0  0  0  0  0  0  0  0  0  0
   -4.6193   -1.7127   -2.6901 N   0  0  0  0  0  0  0  0  0  0  0  0
   -4.8732   -1.6772   -1.3464 C   0  0  0  0  0  0  0  0  0  0  0  0
   -5.5850   -0.5595   -0.6250 C   0  0  0  0  0  0  0  0  0  0  0  0
   -4.5478    0.5267   -0.4158 C   0  0  0  0  0  0  0  0  0  0  0  0
   -5.1093    1.6779    0.3799 C   0  0  0  0  0  0  0  0  0  0  0  0
   -5.6090    1.1307    1.6465 N   0  0  0  0  0  0  0  0  0  0  0  0
   -5.0788    1.5266    2.8500 C   0  0  0  0  0  0  0  0  0  0  0  0
   -5.0445    0.6554    3.9237 C   0  0  0  0  0  0  0  0  0  0  0  0
   -5.0122   -0.0193    4.8682 C   0  0  0  0  0  0  0  0  0  0  0  0
   -5.0792   -0.9781    5.9101 C   0  0  0  0  0  0  0  0  0  0  0  0
   -5.8099   -0.4499    7.0087 N   0  0  0  0  0  0  0  0  0  0  0  0
   -7.0811    0.1302    6.7868 C   0  0  0  0  0  0  0  0  0  0  0  0
   -5.3350   -0.4499    8.3212 C   0  0  0  0  0  0  0  0  0  0  0  0
   -3.6802   -1.3534    6.2932 C   0  0  0  0  0  0  0  0  0  0  0  0
   -5.7598   -2.2583    5.4055 C   0  0  0  0  0  0  0  0  0  0  0  0
   -4.5736    2.6410    2.9752 O   0  0  0  0  0  0  0  0  0  0  0  0
   -6.6226    0.1192    1.5408 C   0  0  0  0  0  0  0  0  0  0  0  0
   -6.1219   -1.0299    0.7372 C   0  0  0  0  0  0  0  0  0  0  0  0
   -4.4442   -2.6280   -0.6608 O   0  0  0  0  0  0  0  0  0  0  0  0
   -5.0260   -0.6326   -3.6084 C   0  0  0  0  0  0  0  0  0  0  0  0
   -1.9663   -1.2838   -3.1251 O   0  0  0  0  0  0  0  0  0  0  0  0
   -0.0347   -3.7432   -0.5410 C   0  0  0  0  0  0  0  0  0  0  0  0
   -0.9614   -3.1667    0.5575 C   0  0  0  0  0  0  0  0  0  0  0  0
   -0.3938   -1.8658    0.9803 C   0  0  0  0  0  0  0  0  0  0  0  0
   -1.1167   -1.2910    2.0857 N   0  0  0  0  0  0  0  0  0  0  0  0
   -1.3140   -2.1884    3.2358 C   0  0  0  0  0  0  0  0  0  0  0  0
   -1.8027   -3.5647    2.7780 C   0  0  0  0  0  0  0  0  0  0  0  0
   -0.9697   -4.0884    1.6785 O   0  0  0  0  0  0  0  0  0  0  0  0
    0.6284   -4.8021   -3.3687 O   0  0  0  0  0  0  0  0  0  0  0  0
    2.9182   -3.3331   -4.1310 C   0  0  0  0  0  0  0  0  0  0  0  0
    4.2976   -3.0603   -3.4987 C   0  0  0  0  0  0  0  0  0  0  0  0
    4.4238   -1.6404   -2.9559 C   0  0  0  0  0  0  0  0  0  0  0  0
    4.3203    0.7853   -1.5327 O   0  0  0  0  0  0  0  0  0  0  0  0
   -0.8512    2.2790    1.3228 C   0  0  0  0  0  0  0  0  0  0  0  0
   -0.9373    2.8900    2.5724 C   0  0  0  0  0  0  0  0  0  0  0  0
   -1.0744    2.0691    3.7343 C   0  0  0  0  0  0  0  0  0  0  0  0
   -1.1286    0.6795    3.5326 C   0  0  0  0  0  0  0  0  0  0  0  0
   -1.0464    0.0954    2.2628 C   0  0  0  0  0  0  0  0  0  0  0  0
   -0.8946    0.9067    1.1407 C   0  0  0  0  0  0  0  0  0  0  0  0
   -6.6819   -0.1106   -1.3311 F   0  0  0  0  0  0  0  0  0  0  0  0
  1  2  1  0  0  0  0
  2  3  1  0  0  0  0
  2  5  1  0  0  0  0
  3  4  1  0  0  0  0
  5  6  4  0  0  0  0
  5 10  4  0  0  0  0
  6  7  4  0  0  0  0
  7  8  4  0  0  0  0
  8  9  4  0  0  0  0
  9 10  4  0  0  0  0
 10 11  1  0  0  0  0
 11 12  4  0  0  0  0
 11 15  4  0  0  0  0
 12 13  1  0  0  0  0
 12 68  4  0  0  0  0
 13 14  1  0  0  0  0
 15 16  1  0  0  0  0
 15 67  4  0  0  0  0
 16 17  1  0  0  0  0
 17 18  1  0  0  0  0
 17 19  1  0  0  0  0
 17 20  1  0  0  0  0
 20 21  1  0  0  0  0
 21 22  1  0  0  0  0
 22 23  1  0  0  0  0
 22 66  2  0  0  0  0
 23 24  1  0  0  0  0
 23 65  1  0  0  0  0
 24 25  1  0  0  0  0
 25 26  1  0  0  0  0
 25 63  1  0  0  0  0
 26 27  1  0  0  0  0
 26 62  2  0  0  0  0
 27 28  1  0  0  0  0
 27 55  1  0  0  0  0
 28 29  1  0  0  0  0
 29 30  1  0  0  0  0
 29 54  2  0  0  0  0
 30 31  1  0  0  0  0
 30 34  1  0  0  0  0
 31 32  1  0  0  0  0
 31 33  1  0  0  0  0
 34 35  1  0  0  0  0
 34 53  1  0  0  0  0
 35 36  1  0  0  0  0
 35 52  2  0  0  0  0
 36 37  1  0  0  0  0
 36 51  1  0  0  0  0
 36 73  1  0  0  0  0
 37 38  1  0  0  0  0
 38 39  1  0  0  0  0
 39 40  1  0  0  0  0
 39 50  1  0  0  0  0
 40 41  1  0  0  0  0
 40 49  2  0  0  0  0
 41 42  1  0  0  0  0
 42 43  1  0  0  0  0
 43 44  1  0  0  0  0
 43 47  1  0  0  0  0
 43 48  1  0  0  0  0
 44 45  1  0  0  0  0
 44 46  1  0  0  0  0
 50 51  1  0  0  0  0
 55 56  1  0  0  0  0
 56 57  1  0  0  0  0
 56 61  1  0  0  0  0
 57 58  1  0  0  0  0
 58 59  1  0  0  0  0
 58 71  1  0  0  0  0
 59 60  1  0  0  0  0
 60 61  1  0  0  0  0
 63 64  1  0  0  0  0
 64 65  1  0  0  0  0
 67 68  4  0  0  0  0
 67 72  4  0  0  0  0
 68 69  4  0  0  0  0
 69 70  4  0  0  0  0
 70 71  4  0  0  0  0
 71 72  4  0  0  0  0
M  END
$$$$
