mol_ETKDG3_164
  PyMOL3.1          3D                             0

 73 79  0  0  0  0  0  0  0  0999 V2000
    6.2656   -0.7573    4.5177 C   0  0  0  0  0  0  0  0  0  0  0  0
    5.7693   -0.4466    3.1392 C   0  0  0  0  0  0  0  0  0  0  0  0
    5.9504    0.9230    2.7819 O   0  0  0  0  0  0  0  0  0  0  0  0
    4.9586    1.8196    3.2121 C   0  0  0  0  0  0  0  0  0  0  0  0
    6.4285   -1.2692    2.0876 C   0  0  0  0  0  0  0  0  0  0  0  0
    7.6804   -0.9782    1.8048 N   0  0  0  0  0  0  0  0  0  0  0  0
    8.3708   -1.6807    0.8889 C   0  0  0  0  0  0  0  0  0  0  0  0
    7.8002   -2.7601    0.2095 C   0  0  0  0  0  0  0  0  0  0  0  0
    6.4764   -3.1012    0.5059 C   0  0  0  0  0  0  0  0  0  0  0  0
    5.7847   -2.3474    1.4410 C   0  0  0  0  0  0  0  0  0  0  0  0
    4.3964   -2.6625    1.7031 C   0  0  0  0  0  0  0  0  0  0  0  0
    3.9496   -3.2964    2.8008 N   0  0  0  0  0  0  0  0  0  0  0  0
    4.7766   -3.9523    3.8616 C   0  0  0  0  0  0  0  0  0  0  0  0
    4.8341   -5.4300    3.6695 C   0  0  0  0  0  0  0  0  0  0  0  0
    3.3011   -2.3015    0.8967 C   0  0  0  0  0  0  0  0  0  0  0  0
    3.2825   -1.8882   -0.4522 C   0  0  0  0  0  0  0  0  0  0  0  0
    3.3637   -0.5208   -1.0082 C   0  0  0  0  0  0  0  0  0  0  0  0
    4.7764   -0.1413   -1.4548 C   0  0  0  0  0  0  0  0  0  0  0  0
    2.8663    0.5699   -0.1379 C   0  0  0  0  0  0  0  0  0  0  0  0
    2.5713   -0.7598   -2.1582 C   0  0  0  0  0  0  0  0  0  0  0  0
    1.1076   -0.4616   -2.1589 O   0  0  0  0  0  0  0  0  0  0  0  0
    0.3269   -0.5501   -3.3274 C   0  0  0  0  0  0  0  0  0  0  0  0
   -1.0014    0.1391   -3.3384 C   0  0  0  0  0  0  0  0  0  0  0  0
   -1.0528    1.1072   -2.2904 N   0  0  0  0  0  0  0  0  0  0  0  0
   -2.1465    1.9558   -2.2246 N   0  0  0  0  0  0  0  0  0  0  0  0
   -2.8120    2.1384   -1.0470 C   0  0  0  0  0  0  0  0  0  0  0  0
   -2.3842    1.3621    0.1652 C   0  0  0  0  0  0  0  0  0  0  0  0
   -2.3096    2.2183    1.3408 N   0  0  0  0  0  0  0  0  0  0  0  0
   -1.1443    2.6990    1.8294 C   0  0  0  0  0  0  0  0  0  0  0  0
   -1.2352    3.4853    3.0979 C   0  0  0  0  0  0  0  0  0  0  0  0
   -1.0554    5.0261    2.8907 C   0  0  0  0  0  0  0  0  0  0  0  0
   -1.3738    5.8243    4.1153 C   0  0  0  0  0  0  0  0  0  0  0  0
   -1.7554    5.5350    1.6683 C   0  0  0  0  0  0  0  0  0  0  0  0
   -0.2271    2.9464    4.0065 N   0  0  0  0  0  0  0  0  0  0  0  0
   -0.5577    1.8839    4.8078 C   0  0  0  0  0  0  0  0  0  0  0  0
    0.3937    1.2319    5.7642 C   0  0  0  0  0  0  0  0  0  0  0  0
    1.3479    0.3947    4.9604 C   0  0  0  0  0  0  0  0  0  0  0  0
    2.3922   -0.1451    5.8125 C   0  0  0  0  0  0  0  0  0  0  0  0
    1.8188   -0.9117    6.8990 N   0  0  0  0  0  0  0  0  0  0  0  0
    2.3626   -2.1203    7.1527 C   0  0  0  0  0  0  0  0  0  0  0  0
    1.8489   -3.0021    8.0767 C   0  0  0  0  0  0  0  0  0  0  0  0
    1.6385   -3.8313    8.8447 C   0  0  0  0  0  0  0  0  0  0  0  0
    1.2648   -4.7839    9.7899 C   0  0  0  0  0  0  0  0  0  0  0  0
    2.4305   -5.2437   10.5119 N   0  0  0  0  0  0  0  0  0  0  0  0
    3.4866   -5.8439    9.7832 C   0  0  0  0  0  0  0  0  0  0  0  0
    2.7872   -4.6661   11.7630 C   0  0  0  0  0  0  0  0  0  0  0  0
    0.6034   -5.9674    9.0825 C   0  0  0  0  0  0  0  0  0  0  0  0
    0.2414   -4.1866   10.7320 C   0  0  0  0  0  0  0  0  0  0  0  0
    3.3721   -2.4727    6.5278 O   0  0  0  0  0  0  0  0  0  0  0  0
    0.7344   -0.3229    7.6511 C   0  0  0  0  0  0  0  0  0  0  0  0
   -0.2772    0.3317    6.8118 C   0  0  0  0  0  0  0  0  0  0  0  0
   -1.7093    1.4287    4.7163 O   0  0  0  0  0  0  0  0  0  0  0  0
    1.1397    3.4997    3.9589 C   0  0  0  0  0  0  0  0  0  0  0  0
   -0.0864    2.4057    1.3043 O   0  0  0  0  0  0  0  0  0  0  0  0
   -3.3949    0.1884    0.4098 C   0  0  0  0  0  0  0  0  0  0  0  0
   -3.0377   -0.7766    1.5595 C   0  0  0  0  0  0  0  0  0  0  0  0
   -1.8167   -1.5217    1.1622 C   0  0  0  0  0  0  0  0  0  0  0  0
   -1.4672   -2.5691    2.0846 N   0  0  0  0  0  0  0  0  0  0  0  0
   -2.5329   -3.4817    2.4572 C   0  0  0  0  0  0  0  0  0  0  0  0
   -3.8462   -2.7223    2.7322 C   0  0  0  0  0  0  0  0  0  0  0  0
   -4.1380   -1.7198    1.6991 O   0  0  0  0  0  0  0  0  0  0  0  0
   -3.7887    2.9055   -0.9702 O   0  0  0  0  0  0  0  0  0  0  0  0
   -2.4820    2.6853   -3.4378 C   0  0  0  0  0  0  0  0  0  0  0  0
   -2.4862    1.7286   -4.6404 C   0  0  0  0  0  0  0  0  0  0  0  0
   -1.2473    0.8601   -4.6874 C   0  0  0  0  0  0  0  0  0  0  0  0
    0.6272   -1.1888   -4.3864 O   0  0  0  0  0  0  0  0  0  0  0  0
    2.1637   -2.6627    1.6291 C   0  0  0  0  0  0  0  0  0  0  0  0
    2.6037   -3.2992    2.7726 C   0  0  0  0  0  0  0  0  0  0  0  0
    1.6403   -3.8143    3.7003 C   0  0  0  0  0  0  0  0  0  0  0  0
    0.2907   -3.5654    3.4279 C   0  0  0  0  0  0  0  0  0  0  0  0
   -0.1220   -2.8652    2.2922 C   0  0  0  0  0  0  0  0  0  0  0  0
    0.8259   -2.4168    1.3674 C   0  0  0  0  0  0  0  0  0  0  0  0
    1.0544    2.1946    6.5058 F   0  0  0  0  0  0  0  0  0  0  0  0
  1  2  1  0  0  0  0
  2  3  1  0  0  0  0
  2  5  1  0  0  0  0
  3  4  1  0  0  0  0
  5  6  4  0  0  0  0
  5 10  4  0  0  0  0
  6  7  4  0  0  0  0
  7  8  4  0  0  0  0
  8  9  4  0  0  0  0
  9 10  4  0  0  0  0
 10 11  1  0  0  0  0
 11 12  4  0  0  0  0
 11 15  4  0  0  0  0
 12 13  1  0  0  0  0
 12 68  4  0  0  0  0
 13 14  1  0  0  0  0
 15 16  1  0  0  0  0
 15 67  4  0  0  0  0
 16 17  1  0  0  0  0
 17 18  1  0  0  0  0
 17 19  1  0  0  0  0
 17 20  1  0  0  0  0
 20 21  1  0  0  0  0
 21 22  1  0  0  0  0
 22 23  1  0  0  0  0
 22 66  2  0  0  0  0
 23 24  1  0  0  0  0
 23 65  1  0  0  0  0
 24 25  1  0  0  0  0
 25 26  1  0  0  0  0
 25 63  1  0  0  0  0
 26 27  1  0  0  0  0
 26 62  2  0  0  0  0
 27 28  1  0  0  0  0
 27 55  1  0  0  0  0
 28 29  1  0  0  0  0
 29 30  1  0  0  0  0
 29 54  2  0  0  0  0
 30 31  1  0  0  0  0
 30 34  1  0  0  0  0
 31 32  1  0  0  0  0
 31 33  1  0  0  0  0
 34 35  1  0  0  0  0
 34 53  1  0  0  0  0
 35 36  1  0  0  0  0
 35 52  2  0  0  0  0
 36 37  1  0  0  0  0
 36 51  1  0  0  0  0
 36 73  1  0  0  0  0
 37 38  1  0  0  0  0
 38 39  1  0  0  0  0
 39 40  1  0  0  0  0
 39 50  1  0  0  0  0
 40 41  1  0  0  0  0
 40 49  2  0  0  0  0
 41 42  1  0  0  0  0
 42 43  1  0  0  0  0
 43 44  1  0  0  0  0
 43 47  1  0  0  0  0
 43 48  1  0  0  0  0
 44 45  1  0  0  0  0
 44 46  1  0  0  0  0
 50 51  1  0  0  0  0
 55 56  1  0  0  0  0
 56 57  1  0  0  0  0
 56 61  1  0  0  0  0
 57 58  1  0  0  0  0
 58 59  1  0  0  0  0
 58 71  1  0  0  0  0
 59 60  1  0  0  0  0
 60 61  1  0  0  0  0
 63 64  1  0  0  0  0
 64 65  1  0  0  0  0
 67 68  4  0  0  0  0
 67 72  4  0  0  0  0
 68 69  4  0  0  0  0
 69 70  4  0  0  0  0
 70 71  4  0  0  0  0
 71 72  4  0  0  0  0
M  END
$$$$
