mol_ETKDG4_216
  PyMOL3.1          3D                             0

 73 79  0  0  0  0  0  0  0  0999 V2000
   -0.6622    4.3192   -3.4157 C   0  0  0  0  0  0  0  0  0  0  0  0
   -1.6665    3.2390   -3.4877 C   0  0  0  0  0  0  0  0  0  0  0  0
   -2.9612    3.5796   -3.0721 O   0  0  0  0  0  0  0  0  0  0  0  0
   -3.1624    3.7736   -1.6946 C   0  0  0  0  0  0  0  0  0  0  0  0
   -1.7807    2.6674   -4.8368 C   0  0  0  0  0  0  0  0  0  0  0  0
   -2.2722    3.4319   -5.8004 N   0  0  0  0  0  0  0  0  0  0  0  0
   -2.3337    2.9987   -7.0770 C   0  0  0  0  0  0  0  0  0  0  0  0
   -1.8822    1.7280   -7.4411 C   0  0  0  0  0  0  0  0  0  0  0  0
   -1.3571    0.9019   -6.4313 C   0  0  0  0  0  0  0  0  0  0  0  0
   -1.3477    1.3802   -5.1119 C   0  0  0  0  0  0  0  0  0  0  0  0
   -0.8671    0.5077   -4.0628 C   0  0  0  0  0  0  0  0  0  0  0  0
    0.4406    0.3946   -3.7383 N   0  0  0  0  0  0  0  0  0  0  0  0
    1.6054    1.1069   -4.3701 C   0  0  0  0  0  0  0  0  0  0  0  0
    2.3779    0.2234   -5.2545 C   0  0  0  0  0  0  0  0  0  0  0  0
   -1.6676   -0.2554   -3.1676 C   0  0  0  0  0  0  0  0  0  0  0  0
   -3.1590   -0.3708   -3.0165 C   0  0  0  0  0  0  0  0  0  0  0  0
   -3.8738   -1.4701   -3.9066 C   0  0  0  0  0  0  0  0  0  0  0  0
   -3.7377   -1.2175   -5.3879 C   0  0  0  0  0  0  0  0  0  0  0  0
   -5.3532   -1.3842   -3.6363 C   0  0  0  0  0  0  0  0  0  0  0  0
   -3.3647   -2.8635   -3.5889 C   0  0  0  0  0  0  0  0  0  0  0  0
   -4.0447   -3.5553   -2.4250 O   0  0  0  0  0  0  0  0  0  0  0  0
   -4.4846   -4.9101   -2.4504 C   0  0  0  0  0  0  0  0  0  0  0  0
   -5.1075   -5.5079   -1.2025 C   0  0  0  0  0  0  0  0  0  0  0  0
   -5.3876   -4.4903   -0.2400 N   0  0  0  0  0  0  0  0  0  0  0  0
   -6.0082   -4.8785    0.9433 N   0  0  0  0  0  0  0  0  0  0  0  0
   -5.4739   -4.5520    2.1504 C   0  0  0  0  0  0  0  0  0  0  0  0
   -4.2125   -3.7456    2.1964 C   0  0  0  0  0  0  0  0  0  0  0  0
   -4.2396   -2.8155    3.3016 N   0  0  0  0  0  0  0  0  0  0  0  0
   -4.5065   -1.5125    3.1405 C   0  0  0  0  0  0  0  0  0  0  0  0
   -4.3524   -0.6615    4.3558 C   0  0  0  0  0  0  0  0  0  0  0  0
   -5.7091   -0.2232    5.0024 C   0  0  0  0  0  0  0  0  0  0  0  0
   -5.5374    0.4352    6.3279 C   0  0  0  0  0  0  0  0  0  0  0  0
   -6.7304   -1.3156    5.0219 C   0  0  0  0  0  0  0  0  0  0  0  0
   -3.5380    0.4746    3.9416 N   0  0  0  0  0  0  0  0  0  0  0  0
   -2.1723    0.3052    3.8937 C   0  0  0  0  0  0  0  0  0  0  0  0
   -1.2017    1.3329    3.3914 C   0  0  0  0  0  0  0  0  0  0  0  0
    0.2594    0.9037    3.5821 C   0  0  0  0  0  0  0  0  0  0  0  0
    1.1926    1.8499    2.9316 C   0  0  0  0  0  0  0  0  0  0  0  0
    0.7886    2.1736    1.5500 N   0  0  0  0  0  0  0  0  0  0  0  0
    1.6395    2.2209    0.4928 C   0  0  0  0  0  0  0  0  0  0  0  0
    2.9848    2.0162    0.6327 C   0  0  0  0  0  0  0  0  0  0  0  0
    4.1365    1.9587    0.6089 C   0  0  0  0  0  0  0  0  0  0  0  0
    5.5229    1.8807    0.7430 C   0  0  0  0  0  0  0  0  0  0  0  0
    6.1372    2.7208   -0.2328 N   0  0  0  0  0  0  0  0  0  0  0  0
    5.7748    4.0861   -0.2932 C   0  0  0  0  0  0  0  0  0  0  0  0
    7.0284    2.2577   -1.2073 C   0  0  0  0  0  0  0  0  0  0  0  0
    5.9583    0.4392    0.6075 C   0  0  0  0  0  0  0  0  0  0  0  0
    5.9401    2.3401    2.1397 C   0  0  0  0  0  0  0  0  0  0  0  0
    1.1938    2.4702   -0.6482 O   0  0  0  0  0  0  0  0  0  0  0  0
   -0.5799    2.4683    1.3165 C   0  0  0  0  0  0  0  0  0  0  0  0
   -1.4651    1.4779    1.9039 C   0  0  0  0  0  0  0  0  0  0  0  0
   -1.7196   -0.7952    4.2622 O   0  0  0  0  0  0  0  0  0  0  0  0
   -4.2020    1.7066    3.4852 C   0  0  0  0  0  0  0  0  0  0  0  0
   -4.7386   -1.0610    2.0314 O   0  0  0  0  0  0  0  0  0  0  0  0
   -2.9504   -4.6862    2.3473 C   0  0  0  0  0  0  0  0  0  0  0  0
   -1.5923   -3.9333    2.2650 C   0  0  0  0  0  0  0  0  0  0  0  0
   -1.3364   -3.6082    0.8263 C   0  0  0  0  0  0  0  0  0  0  0  0
   -0.0391   -3.0081    0.6168 N   0  0  0  0  0  0  0  0  0  0  0  0
    1.0834   -3.7761    1.1954 C   0  0  0  0  0  0  0  0  0  0  0  0
    0.7662   -4.1830    2.6449 C   0  0  0  0  0  0  0  0  0  0  0  0
   -0.5550   -4.8230    2.7498 O   0  0  0  0  0  0  0  0  0  0  0  0
   -5.9957   -4.9335    3.2129 O   0  0  0  0  0  0  0  0  0  0  0  0
   -7.2804   -5.5842    0.8052 C   0  0  0  0  0  0  0  0  0  0  0  0
   -7.1188   -6.7278   -0.2113 C   0  0  0  0  0  0  0  0  0  0  0  0
   -6.4384   -6.2659   -1.5080 C   0  0  0  0  0  0  0  0  0  0  0  0
   -4.4026   -5.6650   -3.4390 O   0  0  0  0  0  0  0  0  0  0  0  0
   -0.7294   -0.8739   -2.3192 C   0  0  0  0  0  0  0  0  0  0  0  0
    0.5397   -0.4448   -2.6960 C   0  0  0  0  0  0  0  0  0  0  0  0
    1.6762   -0.8956   -1.9454 C   0  0  0  0  0  0  0  0  0  0  0  0
    1.4358   -1.7411   -0.8518 C   0  0  0  0  0  0  0  0  0  0  0  0
    0.1543   -2.1627   -0.4889 C   0  0  0  0  0  0  0  0  0  0  0  0
   -0.9565   -1.7151   -1.2302 C   0  0  0  0  0  0  0  0  0  0  0  0
   -1.3783    2.5405    4.0499 F   0  0  0  0  0  0  0  0  0  0  0  0
  1  2  1  0  0  0  0
  2  3  1  0  0  0  0
  2  5  1  0  0  0  0
  3  4  1  0  0  0  0
  5  6  4  0  0  0  0
  5 10  4  0  0  0  0
  6  7  4  0  0  0  0
  7  8  4  0  0  0  0
  8  9  4  0  0  0  0
  9 10  4  0  0  0  0
 10 11  1  0  0  0  0
 11 12  4  0  0  0  0
 11 15  4  0  0  0  0
 12 13  1  0  0  0  0
 12 68  4  0  0  0  0
 13 14  1  0  0  0  0
 15 16  1  0  0  0  0
 15 67  4  0  0  0  0
 16 17  1  0  0  0  0
 17 18  1  0  0  0  0
 17 19  1  0  0  0  0
 17 20  1  0  0  0  0
 20 21  1  0  0  0  0
 21 22  1  0  0  0  0
 22 23  1  0  0  0  0
 22 66  2  0  0  0  0
 23 24  1  0  0  0  0
 23 65  1  0  0  0  0
 24 25  1  0  0  0  0
 25 26  1  0  0  0  0
 25 63  1  0  0  0  0
 26 27  1  0  0  0  0
 26 62  2  0  0  0  0
 27 28  1  0  0  0  0
 27 55  1  0  0  0  0
 28 29  1  0  0  0  0
 29 30  1  0  0  0  0
 29 54  2  0  0  0  0
 30 31  1  0  0  0  0
 30 34  1  0  0  0  0
 31 32  1  0  0  0  0
 31 33  1  0  0  0  0
 34 35  1  0  0  0  0
 34 53  1  0  0  0  0
 35 36  1  0  0  0  0
 35 52  2  0  0  0  0
 36 37  1  0  0  0  0
 36 51  1  0  0  0  0
 36 73  1  0  0  0  0
 37 38  1  0  0  0  0
 38 39  1  0  0  0  0
 39 40  1  0  0  0  0
 39 50  1  0  0  0  0
 40 41  1  0  0  0  0
 40 49  2  0  0  0  0
 41 42  1  0  0  0  0
 42 43  1  0  0  0  0
 43 44  1  0  0  0  0
 43 47  1  0  0  0  0
 43 48  1  0  0  0  0
 44 45  1  0  0  0  0
 44 46  1  0  0  0  0
 50 51  1  0  0  0  0
 55 56  1  0  0  0  0
 56 57  1  0  0  0  0
 56 61  1  0  0  0  0
 57 58  1  0  0  0  0
 58 59  1  0  0  0  0
 58 71  1  0  0  0  0
 59 60  1  0  0  0  0
 60 61  1  0  0  0  0
 63 64  1  0  0  0  0
 64 65  1  0  0  0  0
 67 68  4  0  0  0  0
 67 72  4  0  0  0  0
 68 69  4  0  0  0  0
 69 70  4  0  0  0  0
 70 71  4  0  0  0  0
 71 72  4  0  0  0  0
M  END
$$$$
