mol_ETKDG2_121
  PyMOL3.1          3D                             0

 73 79  0  0  0  0  0  0  0  0999 V2000
   -1.8217    3.6549    3.6796 C   0  0  0  0  0  0  0  0  0  0  0  0
   -3.0101    2.7820    3.5569 C   0  0  0  0  0  0  0  0  0  0  0  0
   -3.4997    2.2819    4.8087 O   0  0  0  0  0  0  0  0  0  0  0  0
   -2.9440    1.0894    5.2481 C   0  0  0  0  0  0  0  0  0  0  0  0
   -4.1388    3.4698    2.9160 C   0  0  0  0  0  0  0  0  0  0  0  0
   -4.7078    4.4540    3.5952 N   0  0  0  0  0  0  0  0  0  0  0  0
   -5.7701    5.1244    3.1039 C   0  0  0  0  0  0  0  0  0  0  0  0
   -6.2916    4.8425    1.8420 C   0  0  0  0  0  0  0  0  0  0  0  0
   -5.7004    3.8128    1.1083 C   0  0  0  0  0  0  0  0  0  0  0  0
   -4.5887    3.1295    1.6528 C   0  0  0  0  0  0  0  0  0  0  0  0
   -3.9901    2.0859    0.8506 C   0  0  0  0  0  0  0  0  0  0  0  0
   -4.5409    0.8611    0.7309 N   0  0  0  0  0  0  0  0  0  0  0  0
   -5.7359    0.3190    1.4664 C   0  0  0  0  0  0  0  0  0  0  0  0
   -6.9444    0.2838    0.6284 C   0  0  0  0  0  0  0  0  0  0  0  0
   -2.7800    2.1429    0.1044 C   0  0  0  0  0  0  0  0  0  0  0  0
   -1.6801    3.1486    0.1090 C   0  0  0  0  0  0  0  0  0  0  0  0
   -1.8305    4.3624   -0.8526 C   0  0  0  0  0  0  0  0  0  0  0  0
   -3.1114    5.1257   -0.6589 C   0  0  0  0  0  0  0  0  0  0  0  0
   -0.7282    5.3499   -0.5387 C   0  0  0  0  0  0  0  0  0  0  0  0
   -1.7593    3.8453   -2.2521 C   0  0  0  0  0  0  0  0  0  0  0  0
   -0.3581    3.5717   -2.7690 O   0  0  0  0  0  0  0  0  0  0  0  0
    0.1754    4.1944   -3.9381 C   0  0  0  0  0  0  0  0  0  0  0  0
    1.5021    3.7387   -4.4893 C   0  0  0  0  0  0  0  0  0  0  0  0
    2.2932    3.0272   -3.5186 N   0  0  0  0  0  0  0  0  0  0  0  0
    3.5619    2.6061   -3.9603 N   0  0  0  0  0  0  0  0  0  0  0  0
    3.9624    1.3008   -3.8961 C   0  0  0  0  0  0  0  0  0  0  0  0
    3.0526    0.2876   -3.2715 C   0  0  0  0  0  0  0  0  0  0  0  0
    3.8108   -0.7799   -2.6342 N   0  0  0  0  0  0  0  0  0  0  0  0
    3.8670   -0.9681   -1.3057 C   0  0  0  0  0  0  0  0  0  0  0  0
    4.5780   -2.1951   -0.8303 C   0  0  0  0  0  0  0  0  0  0  0  0
    5.9914   -1.9102   -0.2486 C   0  0  0  0  0  0  0  0  0  0  0  0
    6.8468   -3.1249   -0.1280 C   0  0  0  0  0  0  0  0  0  0  0  0
    6.6800   -0.7411   -0.8375 C   0  0  0  0  0  0  0  0  0  0  0  0
    3.7056   -2.8349    0.1579 N   0  0  0  0  0  0  0  0  0  0  0  0
    2.6776   -3.6237   -0.2864 C   0  0  0  0  0  0  0  0  0  0  0  0
    1.6555   -4.2685    0.6125 C   0  0  0  0  0  0  0  0  0  0  0  0
    0.7150   -3.1747    1.0337 C   0  0  0  0  0  0  0  0  0  0  0  0
   -0.3289   -3.6915    1.9451 C   0  0  0  0  0  0  0  0  0  0  0  0
   -1.0467   -4.7662    1.2687 N   0  0  0  0  0  0  0  0  0  0  0  0
   -2.4016   -4.6772    1.1265 C   0  0  0  0  0  0  0  0  0  0  0  0
   -3.0962   -5.4978    0.2699 C   0  0  0  0  0  0  0  0  0  0  0  0
   -3.7681   -6.1633   -0.3741 C   0  0  0  0  0  0  0  0  0  0  0  0
   -4.3502   -7.1044   -1.2420 C   0  0  0  0  0  0  0  0  0  0  0  0
   -3.9799   -8.4097   -0.8199 N   0  0  0  0  0  0  0  0  0  0  0  0
   -4.7112   -9.0556    0.1896 C   0  0  0  0  0  0  0  0  0  0  0  0
   -2.7373   -8.9696   -1.1992 C   0  0  0  0  0  0  0  0  0  0  0  0
   -5.8556   -6.9616   -1.2651 C   0  0  0  0  0  0  0  0  0  0  0  0
   -3.8699   -6.8707   -2.6744 C   0  0  0  0  0  0  0  0  0  0  0  0
   -3.0279   -3.8094    1.7359 O   0  0  0  0  0  0  0  0  0  0  0  0
   -0.2521   -5.8571    0.7696 C   0  0  0  0  0  0  0  0  0  0  0  0
    0.8473   -5.3776   -0.0968 C   0  0  0  0  0  0  0  0  0  0  0  0
    2.5687   -3.7875   -1.5181 O   0  0  0  0  0  0  0  0  0  0  0  0
    3.8904   -2.5201    1.5812 C   0  0  0  0  0  0  0  0  0  0  0  0
    3.2594   -0.2221   -0.5514 O   0  0  0  0  0  0  0  0  0  0  0  0
    2.1722   -0.3572   -4.4122 C   0  0  0  0  0  0  0  0  0  0  0  0
    1.1339   -1.3660   -3.8763 C   0  0  0  0  0  0  0  0  0  0  0  0
   -0.0198   -0.5706   -3.4067 C   0  0  0  0  0  0  0  0  0  0  0  0
   -1.0720   -1.4151   -2.9185 N   0  0  0  0  0  0  0  0  0  0  0  0
   -1.4915   -2.4722   -3.8566 C   0  0  0  0  0  0  0  0  0  0  0  0
   -0.2806   -3.2017   -4.4466 C   0  0  0  0  0  0  0  0  0  0  0  0
    0.7215   -2.2474   -4.9468 O   0  0  0  0  0  0  0  0  0  0  0  0
    5.0439    0.9199   -4.3846 O   0  0  0  0  0  0  0  0  0  0  0  0
    4.4488    3.6586   -4.4348 C   0  0  0  0  0  0  0  0  0  0  0  0
    3.7104    4.4766   -5.5121 C   0  0  0  0  0  0  0  0  0  0  0  0
    2.3372    4.9326   -5.0252 C   0  0  0  0  0  0  0  0  0  0  0  0
   -0.3844    5.1293   -4.5762 O   0  0  0  0  0  0  0  0  0  0  0  0
   -2.7277    0.9101   -0.5695 C   0  0  0  0  0  0  0  0  0  0  0  0
   -3.8072    0.1522   -0.1383 C   0  0  0  0  0  0  0  0  0  0  0  0
   -3.9653   -1.1934   -0.6190 C   0  0  0  0  0  0  0  0  0  0  0  0
   -3.0259   -1.6677   -1.5300 C   0  0  0  0  0  0  0  0  0  0  0  0
   -1.9697   -0.8909   -1.9782 C   0  0  0  0  0  0  0  0  0  0  0  0
   -1.7837    0.4176   -1.4744 C   0  0  0  0  0  0  0  0  0  0  0  0
    2.2602   -4.8909    1.6982 F   0  0  0  0  0  0  0  0  0  0  0  0
  1  2  1  0  0  0  0
  2  3  1  0  0  0  0
  2  5  1  0  0  0  0
  3  4  1  0  0  0  0
  5  6  4  0  0  0  0
  5 10  4  0  0  0  0
  6  7  4  0  0  0  0
  7  8  4  0  0  0  0
  8  9  4  0  0  0  0
  9 10  4  0  0  0  0
 10 11  1  0  0  0  0
 11 12  4  0  0  0  0
 11 15  4  0  0  0  0
 12 13  1  0  0  0  0
 12 68  4  0  0  0  0
 13 14  1  0  0  0  0
 15 16  1  0  0  0  0
 15 67  4  0  0  0  0
 16 17  1  0  0  0  0
 17 18  1  0  0  0  0
 17 19  1  0  0  0  0
 17 20  1  0  0  0  0
 20 21  1  0  0  0  0
 21 22  1  0  0  0  0
 22 23  1  0  0  0  0
 22 66  2  0  0  0  0
 23 24  1  0  0  0  0
 23 65  1  0  0  0  0
 24 25  1  0  0  0  0
 25 26  1  0  0  0  0
 25 63  1  0  0  0  0
 26 27  1  0  0  0  0
 26 62  2  0  0  0  0
 27 28  1  0  0  0  0
 27 55  1  0  0  0  0
 28 29  1  0  0  0  0
 29 30  1  0  0  0  0
 29 54  2  0  0  0  0
 30 31  1  0  0  0  0
 30 34  1  0  0  0  0
 31 32  1  0  0  0  0
 31 33  1  0  0  0  0
 34 35  1  0  0  0  0
 34 53  1  0  0  0  0
 35 36  1  0  0  0  0
 35 52  2  0  0  0  0
 36 37  1  0  0  0  0
 36 51  1  0  0  0  0
 36 73  1  0  0  0  0
 37 38  1  0  0  0  0
 38 39  1  0  0  0  0
 39 40  1  0  0  0  0
 39 50  1  0  0  0  0
 40 41  1  0  0  0  0
 40 49  2  0  0  0  0
 41 42  1  0  0  0  0
 42 43  1  0  0  0  0
 43 44  1  0  0  0  0
 43 47  1  0  0  0  0
 43 48  1  0  0  0  0
 44 45  1  0  0  0  0
 44 46  1  0  0  0  0
 50 51  1  0  0  0  0
 55 56  1  0  0  0  0
 56 57  1  0  0  0  0
 56 61  1  0  0  0  0
 57 58  1  0  0  0  0
 58 59  1  0  0  0  0
 58 71  1  0  0  0  0
 59 60  1  0  0  0  0
 60 61  1  0  0  0  0
 63 64  1  0  0  0  0
 64 65  1  0  0  0  0
 67 68  4  0  0  0  0
 67 72  4  0  0  0  0
 68 69  4  0  0  0  0
 69 70  4  0  0  0  0
 70 71  4  0  0  0  0
 71 72  4  0  0  0  0
M  END
$$$$
