mol_ETKDG5_282
  PyMOL3.1          3D                             0

 73 79  0  0  0  0  0  0  0  0999 V2000
    6.4441   -0.5835   -0.8762 C   0  0  0  0  0  0  0  0  0  0  0  0
    6.5247    0.0642    0.4487 C   0  0  0  0  0  0  0  0  0  0  0  0
    7.2160    1.3049    0.4596 O   0  0  0  0  0  0  0  0  0  0  0  0
    6.5571    2.4196   -0.0678 C   0  0  0  0  0  0  0  0  0  0  0  0
    7.1906   -0.7882    1.4467 C   0  0  0  0  0  0  0  0  0  0  0  0
    8.5112   -0.8122    1.4385 N   0  0  0  0  0  0  0  0  0  0  0  0
    9.2025   -1.5996    2.2841 C   0  0  0  0  0  0  0  0  0  0  0  0
    8.5604   -2.4315    3.2003 C   0  0  0  0  0  0  0  0  0  0  0  0
    7.1664   -2.4344    3.2172 C   0  0  0  0  0  0  0  0  0  0  0  0
    6.4752   -1.5886    2.3399 C   0  0  0  0  0  0  0  0  0  0  0  0
    5.0331   -1.5891    2.4121 C   0  0  0  0  0  0  0  0  0  0  0  0
    4.2558   -2.5737    1.8987 N   0  0  0  0  0  0  0  0  0  0  0  0
    4.6939   -3.7840    1.1349 C   0  0  0  0  0  0  0  0  0  0  0  0
    4.6765   -5.0082    1.9378 C   0  0  0  0  0  0  0  0  0  0  0  0
    4.2286   -0.5678    2.9736 C   0  0  0  0  0  0  0  0  0  0  0  0
    4.5992    0.7812    3.5332 C   0  0  0  0  0  0  0  0  0  0  0  0
    5.0258    0.8034    5.0509 C   0  0  0  0  0  0  0  0  0  0  0  0
    5.5593    2.1966    5.3758 C   0  0  0  0  0  0  0  0  0  0  0  0
    6.1447   -0.1053    5.3564 C   0  0  0  0  0  0  0  0  0  0  0  0
    3.8625    0.4685    5.9299 C   0  0  0  0  0  0  0  0  0  0  0  0
    2.8677    1.5790    6.1143 O   0  0  0  0  0  0  0  0  0  0  0  0
    2.2025    1.8608    7.3381 C   0  0  0  0  0  0  0  0  0  0  0  0
    1.2115    3.0003    7.3907 C   0  0  0  0  0  0  0  0  0  0  0  0
    1.2279    3.7536    6.1716 N   0  0  0  0  0  0  0  0  0  0  0  0
    0.3859    4.8566    6.0913 N   0  0  0  0  0  0  0  0  0  0  0  0
   -0.5295    4.9831    5.0835 C   0  0  0  0  0  0  0  0  0  0  0  0
   -0.5948    3.9072    4.0416 C   0  0  0  0  0  0  0  0  0  0  0  0
   -0.7964    4.4363    2.7117 N   0  0  0  0  0  0  0  0  0  0  0  0
    0.1743    4.5145    1.7927 C   0  0  0  0  0  0  0  0  0  0  0  0
   -0.2570    4.9208    0.4252 C   0  0  0  0  0  0  0  0  0  0  0  0
   -0.1994    6.4094    0.0961 C   0  0  0  0  0  0  0  0  0  0  0  0
    0.6010    7.2871    0.9406 C   0  0  0  0  0  0  0  0  0  0  0  0
   -1.4804    6.9561   -0.4437 C   0  0  0  0  0  0  0  0  0  0  0  0
    0.4778    4.1079   -0.5364 N   0  0  0  0  0  0  0  0  0  0  0  0
    0.0704    2.8245   -0.7401 C   0  0  0  0  0  0  0  0  0  0  0  0
    0.7429    1.8544   -1.6653 C   0  0  0  0  0  0  0  0  0  0  0  0
    2.0206    1.3993   -0.9882 C   0  0  0  0  0  0  0  0  0  0  0  0
    2.7632    0.4395   -1.8456 C   0  0  0  0  0  0  0  0  0  0  0  0
    1.8648   -0.6740   -2.1690 N   0  0  0  0  0  0  0  0  0  0  0  0
    2.2294   -1.9544   -1.8931 C   0  0  0  0  0  0  0  0  0  0  0  0
    1.3202   -2.9780   -2.0317 C   0  0  0  0  0  0  0  0  0  0  0  0
    0.6649   -3.9119   -2.1182 C   0  0  0  0  0  0  0  0  0  0  0  0
   -0.2631   -4.9601   -2.2298 C   0  0  0  0  0  0  0  0  0  0  0  0
    0.2407   -6.1517   -1.6513 N   0  0  0  0  0  0  0  0  0  0  0  0
    1.5593   -6.5475   -1.9446 C   0  0  0  0  0  0  0  0  0  0  0  0
   -0.6093   -7.1384   -1.1431 C   0  0  0  0  0  0  0  0  0  0  0  0
   -1.5385   -4.5267   -1.5604 C   0  0  0  0  0  0  0  0  0  0  0  0
   -0.5835   -5.2091   -3.7004 C   0  0  0  0  0  0  0  0  0  0  0  0
    3.3605   -2.2207   -1.4887 O   0  0  0  0  0  0  0  0  0  0  0  0
    0.5940   -0.3397   -2.7536 C   0  0  0  0  0  0  0  0  0  0  0  0
   -0.1398    0.6348   -1.9453 C   0  0  0  0  0  0  0  0  0  0  0  0
   -0.9241    2.4369   -0.0963 O   0  0  0  0  0  0  0  0  0  0  0  0
    1.6896    4.6557   -1.1726 C   0  0  0  0  0  0  0  0  0  0  0  0
    1.3130    4.1433    2.0430 O   0  0  0  0  0  0  0  0  0  0  0  0
   -1.7618    2.8995    4.3944 C   0  0  0  0  0  0  0  0  0  0  0  0
   -1.8332    1.6393    3.4914 C   0  0  0  0  0  0  0  0  0  0  0  0
   -0.6706    0.7813    3.8524 C   0  0  0  0  0  0  0  0  0  0  0  0
   -0.6906   -0.4884    3.1686 N   0  0  0  0  0  0  0  0  0  0  0  0
   -1.9453   -1.2322    3.2603 C   0  0  0  0  0  0  0  0  0  0  0  0
   -3.1549   -0.3143    3.0308 C   0  0  0  0  0  0  0  0  0  0  0  0
   -3.0651    0.9327    3.7959 O   0  0  0  0  0  0  0  0  0  0  0  0
   -1.3328    5.9304    5.0334 O   0  0  0  0  0  0  0  0  0  0  0  0
    0.5837    5.8797    7.1209 C   0  0  0  0  0  0  0  0  0  0  0  0
    0.5796    5.2088    8.5056 C   0  0  0  0  0  0  0  0  0  0  0  0
    1.4991    3.9789    8.5699 C   0  0  0  0  0  0  0  0  0  0  0  0
    2.3716    1.2262    8.4053 O   0  0  0  0  0  0  0  0  0  0  0  0
    2.9180   -1.0438    2.8073 C   0  0  0  0  0  0  0  0  0  0  0  0
    2.9778   -2.2662    2.1453 C   0  0  0  0  0  0  0  0  0  0  0  0
    1.7592   -2.9483    1.8166 C   0  0  0  0  0  0  0  0  0  0  0  0
    0.5581   -2.3249    2.1652 C   0  0  0  0  0  0  0  0  0  0  0  0
    0.5227   -1.0972    2.8370 C   0  0  0  0  0  0  0  0  0  0  0  0
    1.7242   -0.4444    3.1660 C   0  0  0  0  0  0  0  0  0  0  0  0
    0.9881    2.4353   -2.8910 F   0  0  0  0  0  0  0  0  0  0  0  0
  1  2  1  0  0  0  0
  2  3  1  0  0  0  0
  2  5  1  0  0  0  0
  3  4  1  0  0  0  0
  5  6  4  0  0  0  0
  5 10  4  0  0  0  0
  6  7  4  0  0  0  0
  7  8  4  0  0  0  0
  8  9  4  0  0  0  0
  9 10  4  0  0  0  0
 10 11  1  0  0  0  0
 11 12  4  0  0  0  0
 11 15  4  0  0  0  0
 12 13  1  0  0  0  0
 12 68  4  0  0  0  0
 13 14  1  0  0  0  0
 15 16  1  0  0  0  0
 15 67  4  0  0  0  0
 16 17  1  0  0  0  0
 17 18  1  0  0  0  0
 17 19  1  0  0  0  0
 17 20  1  0  0  0  0
 20 21  1  0  0  0  0
 21 22  1  0  0  0  0
 22 23  1  0  0  0  0
 22 66  2  0  0  0  0
 23 24  1  0  0  0  0
 23 65  1  0  0  0  0
 24 25  1  0  0  0  0
 25 26  1  0  0  0  0
 25 63  1  0  0  0  0
 26 27  1  0  0  0  0
 26 62  2  0  0  0  0
 27 28  1  0  0  0  0
 27 55  1  0  0  0  0
 28 29  1  0  0  0  0
 29 30  1  0  0  0  0
 29 54  2  0  0  0  0
 30 31  1  0  0  0  0
 30 34  1  0  0  0  0
 31 32  1  0  0  0  0
 31 33  1  0  0  0  0
 34 35  1  0  0  0  0
 34 53  1  0  0  0  0
 35 36  1  0  0  0  0
 35 52  2  0  0  0  0
 36 37  1  0  0  0  0
 36 51  1  0  0  0  0
 36 73  1  0  0  0  0
 37 38  1  0  0  0  0
 38 39  1  0  0  0  0
 39 40  1  0  0  0  0
 39 50  1  0  0  0  0
 40 41  1  0  0  0  0
 40 49  2  0  0  0  0
 41 42  1  0  0  0  0
 42 43  1  0  0  0  0
 43 44  1  0  0  0  0
 43 47  1  0  0  0  0
 43 48  1  0  0  0  0
 44 45  1  0  0  0  0
 44 46  1  0  0  0  0
 50 51  1  0  0  0  0
 55 56  1  0  0  0  0
 56 57  1  0  0  0  0
 56 61  1  0  0  0  0
 57 58  1  0  0  0  0
 58 59  1  0  0  0  0
 58 71  1  0  0  0  0
 59 60  1  0  0  0  0
 60 61  1  0  0  0  0
 63 64  1  0  0  0  0
 64 65  1  0  0  0  0
 67 68  4  0  0  0  0
 67 72  4  0  0  0  0
 68 69  4  0  0  0  0
 69 70  4  0  0  0  0
 70 71  4  0  0  0  0
 71 72  4  0  0  0  0
M  END
$$$$
