mol_ETKDG5_277
  PyMOL3.1          3D                             0

 73 79  0  0  0  0  0  0  0  0999 V2000
    5.2625   -3.0864   -2.1018 C   0  0  0  0  0  0  0  0  0  0  0  0
    4.7583   -3.8401   -0.9426 C   0  0  0  0  0  0  0  0  0  0  0  0
    5.6228   -3.9346    0.1718 O   0  0  0  0  0  0  0  0  0  0  0  0
    5.7970   -2.7831    0.9556 C   0  0  0  0  0  0  0  0  0  0  0  0
    4.3274   -5.2080   -1.2669 C   0  0  0  0  0  0  0  0  0  0  0  0
    5.2528   -6.1522   -1.3332 N   0  0  0  0  0  0  0  0  0  0  0  0
    4.9342   -7.4280   -1.6359 C   0  0  0  0  0  0  0  0  0  0  0  0
    3.6188   -7.8073   -1.9132 C   0  0  0  0  0  0  0  0  0  0  0  0
    2.6328   -6.8216   -1.8653 C   0  0  0  0  0  0  0  0  0  0  0  0
    3.0041   -5.5096   -1.5205 C   0  0  0  0  0  0  0  0  0  0  0  0
    1.9645   -4.5219   -1.4517 C   0  0  0  0  0  0  0  0  0  0  0  0
    1.4382   -3.9441   -2.5475 N   0  0  0  0  0  0  0  0  0  0  0  0
    1.8562   -4.1275   -3.9781 C   0  0  0  0  0  0  0  0  0  0  0  0
    0.9030   -4.8868   -4.7747 C   0  0  0  0  0  0  0  0  0  0  0  0
    1.3923   -3.9803   -0.2724 C   0  0  0  0  0  0  0  0  0  0  0  0
    1.7476   -4.1241    1.1741 C   0  0  0  0  0  0  0  0  0  0  0  0
    1.2282   -5.3857    1.9401 C   0  0  0  0  0  0  0  0  0  0  0  0
    1.6650   -5.2530    3.3831 C   0  0  0  0  0  0  0  0  0  0  0  0
    1.8932   -6.6308    1.4668 C   0  0  0  0  0  0  0  0  0  0  0  0
   -0.2828   -5.5210    1.8235 C   0  0  0  0  0  0  0  0  0  0  0  0
   -1.0699   -4.7456    2.8466 O   0  0  0  0  0  0  0  0  0  0  0  0
   -1.9476   -5.3372    3.7960 C   0  0  0  0  0  0  0  0  0  0  0  0
   -2.7628   -4.4174    4.6858 C   0  0  0  0  0  0  0  0  0  0  0  0
   -1.9918   -3.2700    5.0593 N   0  0  0  0  0  0  0  0  0  0  0  0
   -2.5526   -2.3667    5.9631 N   0  0  0  0  0  0  0  0  0  0  0  0
   -2.6213   -1.0317    5.6965 C   0  0  0  0  0  0  0  0  0  0  0  0
   -2.1467   -0.5377    4.3676 C   0  0  0  0  0  0  0  0  0  0  0  0
   -1.3905    0.6877    4.4818 N   0  0  0  0  0  0  0  0  0  0  0  0
   -0.0697    0.7586    4.2918 C   0  0  0  0  0  0  0  0  0  0  0  0
    0.5112    2.1303    4.2758 C   0  0  0  0  0  0  0  0  0  0  0  0
    1.1817    2.5804    5.5988 C   0  0  0  0  0  0  0  0  0  0  0  0
    0.7506    1.8649    6.8037 C   0  0  0  0  0  0  0  0  0  0  0  0
    1.2054    4.0743    5.7365 C   0  0  0  0  0  0  0  0  0  0  0  0
    1.4471    2.1771    3.1548 N   0  0  0  0  0  0  0  0  0  0  0  0
    0.9525    2.4208    1.8917 C   0  0  0  0  0  0  0  0  0  0  0  0
    1.7783    2.4098    0.6305 C   0  0  0  0  0  0  0  0  0  0  0  0
    1.0667    3.0668   -0.5638 C   0  0  0  0  0  0  0  0  0  0  0  0
    1.8306    2.8754   -1.8307 C   0  0  0  0  0  0  0  0  0  0  0  0
    2.2041    1.4590   -2.0197 N   0  0  0  0  0  0  0  0  0  0  0  0
    1.9766    0.7367   -3.1575 C   0  0  0  0  0  0  0  0  0  0  0  0
    1.0841    1.1301   -4.1278 C   0  0  0  0  0  0  0  0  0  0  0  0
    0.3755    1.3342   -5.0196 C   0  0  0  0  0  0  0  0  0  0  0  0
   -0.5717    1.6995   -5.9987 C   0  0  0  0  0  0  0  0  0  0  0  0
   -0.9428    0.5790   -6.7797 N   0  0  0  0  0  0  0  0  0  0  0  0
   -1.8504   -0.3573   -6.2670 C   0  0  0  0  0  0  0  0  0  0  0  0
   -0.2473    0.2303   -7.9467 C   0  0  0  0  0  0  0  0  0  0  0  0
    0.0091    2.7950   -6.8675 C   0  0  0  0  0  0  0  0  0  0  0  0
   -1.8000    2.2908   -5.3457 C   0  0  0  0  0  0  0  0  0  0  0  0
    2.5577   -0.3475   -3.3192 O   0  0  0  0  0  0  0  0  0  0  0  0
    2.8347    0.8119   -0.9221 C   0  0  0  0  0  0  0  0  0  0  0  0
    2.0199    0.9473    0.3032 C   0  0  0  0  0  0  0  0  0  0  0  0
   -0.2694    2.6260    1.7837 O   0  0  0  0  0  0  0  0  0  0  0  0
    2.8596    1.8452    3.4053 C   0  0  0  0  0  0  0  0  0  0  0  0
    0.5761   -0.2389    4.0136 O   0  0  0  0  0  0  0  0  0  0  0  0
   -3.3811   -0.2790    3.4214 C   0  0  0  0  0  0  0  0  0  0  0  0
   -2.9940    0.2041    2.0058 C   0  0  0  0  0  0  0  0  0  0  0  0
   -2.5451   -0.9820    1.2544 C   0  0  0  0  0  0  0  0  0  0  0  0
   -2.2322   -0.6675   -0.1112 N   0  0  0  0  0  0  0  0  0  0  0  0
   -3.2779    0.0721   -0.8356 C   0  0  0  0  0  0  0  0  0  0  0  0
   -3.8133    1.2339    0.0098 C   0  0  0  0  0  0  0  0  0  0  0  0
   -4.1524    0.7964    1.3685 O   0  0  0  0  0  0  0  0  0  0  0  0
   -3.1075   -0.2249    6.5021 O   0  0  0  0  0  0  0  0  0  0  0  0
   -2.9913   -2.9313    7.2343 C   0  0  0  0  0  0  0  0  0  0  0  0
   -3.8763   -4.1597    6.9630 C   0  0  0  0  0  0  0  0  0  0  0  0
   -3.2294   -5.1297    5.9863 C   0  0  0  0  0  0  0  0  0  0  0  0
   -2.0972   -6.5823    3.9474 O   0  0  0  0  0  0  0  0  0  0  0  0
    0.4218   -3.1001   -0.7527 C   0  0  0  0  0  0  0  0  0  0  0  0
    0.4903   -3.0997   -2.1392 C   0  0  0  0  0  0  0  0  0  0  0  0
   -0.3759   -2.2430   -2.8843 C   0  0  0  0  0  0  0  0  0  0  0  0
   -1.2530   -1.4441   -2.1694 C   0  0  0  0  0  0  0  0  0  0  0  0
   -1.3148   -1.4689   -0.7844 C   0  0  0  0  0  0  0  0  0  0  0  0
   -0.4480   -2.2932   -0.0421 C   0  0  0  0  0  0  0  0  0  0  0  0
    2.9685    3.0863    0.8042 F   0  0  0  0  0  0  0  0  0  0  0  0
  1  2  1  0  0  0  0
  2  3  1  0  0  0  0
  2  5  1  0  0  0  0
  3  4  1  0  0  0  0
  5  6  4  0  0  0  0
  5 10  4  0  0  0  0
  6  7  4  0  0  0  0
  7  8  4  0  0  0  0
  8  9  4  0  0  0  0
  9 10  4  0  0  0  0
 10 11  1  0  0  0  0
 11 12  4  0  0  0  0
 11 15  4  0  0  0  0
 12 13  1  0  0  0  0
 12 68  4  0  0  0  0
 13 14  1  0  0  0  0
 15 16  1  0  0  0  0
 15 67  4  0  0  0  0
 16 17  1  0  0  0  0
 17 18  1  0  0  0  0
 17 19  1  0  0  0  0
 17 20  1  0  0  0  0
 20 21  1  0  0  0  0
 21 22  1  0  0  0  0
 22 23  1  0  0  0  0
 22 66  2  0  0  0  0
 23 24  1  0  0  0  0
 23 65  1  0  0  0  0
 24 25  1  0  0  0  0
 25 26  1  0  0  0  0
 25 63  1  0  0  0  0
 26 27  1  0  0  0  0
 26 62  2  0  0  0  0
 27 28  1  0  0  0  0
 27 55  1  0  0  0  0
 28 29  1  0  0  0  0
 29 30  1  0  0  0  0
 29 54  2  0  0  0  0
 30 31  1  0  0  0  0
 30 34  1  0  0  0  0
 31 32  1  0  0  0  0
 31 33  1  0  0  0  0
 34 35  1  0  0  0  0
 34 53  1  0  0  0  0
 35 36  1  0  0  0  0
 35 52  2  0  0  0  0
 36 37  1  0  0  0  0
 36 51  1  0  0  0  0
 36 73  1  0  0  0  0
 37 38  1  0  0  0  0
 38 39  1  0  0  0  0
 39 40  1  0  0  0  0
 39 50  1  0  0  0  0
 40 41  1  0  0  0  0
 40 49  2  0  0  0  0
 41 42  1  0  0  0  0
 42 43  1  0  0  0  0
 43 44  1  0  0  0  0
 43 47  1  0  0  0  0
 43 48  1  0  0  0  0
 44 45  1  0  0  0  0
 44 46  1  0  0  0  0
 50 51  1  0  0  0  0
 55 56  1  0  0  0  0
 56 57  1  0  0  0  0
 56 61  1  0  0  0  0
 57 58  1  0  0  0  0
 58 59  1  0  0  0  0
 58 71  1  0  0  0  0
 59 60  1  0  0  0  0
 60 61  1  0  0  0  0
 63 64  1  0  0  0  0
 64 65  1  0  0  0  0
 67 68  4  0  0  0  0
 67 72  4  0  0  0  0
 68 69  4  0  0  0  0
 69 70  4  0  0  0  0
 70 71  4  0  0  0  0
 71 72  4  0  0  0  0
M  END
$$$$
