mol_ETKDG2_124
  PyMOL3.1          3D                             0

 73 79  0  0  0  0  0  0  0  0999 V2000
    2.3589   -2.5453   -2.3042 C   0  0  0  0  0  0  0  0  0  0  0  0
    2.9560   -1.5537   -1.3912 C   0  0  0  0  0  0  0  0  0  0  0  0
    3.9739   -2.1169   -0.5387 O   0  0  0  0  0  0  0  0  0  0  0  0
    3.6148   -2.3681    0.7796 C   0  0  0  0  0  0  0  0  0  0  0  0
    3.5632   -0.4078   -2.0893 C   0  0  0  0  0  0  0  0  0  0  0  0
    4.8521   -0.4815   -2.3489 N   0  0  0  0  0  0  0  0  0  0  0  0
    5.5034    0.5108   -2.9860 C   0  0  0  0  0  0  0  0  0  0  0  0
    4.8380    1.6600   -3.4127 C   0  0  0  0  0  0  0  0  0  0  0  0
    3.4667    1.7557   -3.1610 C   0  0  0  0  0  0  0  0  0  0  0  0
    2.8223    0.7123   -2.4862 C   0  0  0  0  0  0  0  0  0  0  0  0
    1.4011    0.8351   -2.2327 C   0  0  0  0  0  0  0  0  0  0  0  0
    0.4662    0.7523   -3.2156 N   0  0  0  0  0  0  0  0  0  0  0  0
    0.6887    0.4919   -4.6745 C   0  0  0  0  0  0  0  0  0  0  0  0
    0.4709    1.6595   -5.5264 C   0  0  0  0  0  0  0  0  0  0  0  0
    0.7746    0.9848   -0.9627 C   0  0  0  0  0  0  0  0  0  0  0  0
    1.3496    1.0344    0.4286 C   0  0  0  0  0  0  0  0  0  0  0  0
    1.7638    2.4685    0.9647 C   0  0  0  0  0  0  0  0  0  0  0  0
    2.7727    3.1510    0.0738 C   0  0  0  0  0  0  0  0  0  0  0  0
    2.4638    2.2776    2.2834 C   0  0  0  0  0  0  0  0  0  0  0  0
    0.5641    3.3887    1.1357 C   0  0  0  0  0  0  0  0  0  0  0  0
   -0.2798    3.1789    2.3745 O   0  0  0  0  0  0  0  0  0  0  0  0
   -0.8675    4.2376    3.1432 C   0  0  0  0  0  0  0  0  0  0  0  0
   -1.7377    3.8925    4.3437 C   0  0  0  0  0  0  0  0  0  0  0  0
   -1.6594    2.5000    4.6503 N   0  0  0  0  0  0  0  0  0  0  0  0
   -2.3773    2.0240    5.7499 N   0  0  0  0  0  0  0  0  0  0  0  0
   -3.2413    0.9662    5.6292 C   0  0  0  0  0  0  0  0  0  0  0  0
   -3.4159    0.3505    4.2748 C   0  0  0  0  0  0  0  0  0  0  0  0
   -3.5674   -1.0935    4.3320 N   0  0  0  0  0  0  0  0  0  0  0  0
   -2.6050   -1.9513    3.9382 C   0  0  0  0  0  0  0  0  0  0  0  0
   -2.9704   -3.3964    3.8816 C   0  0  0  0  0  0  0  0  0  0  0  0
   -2.5455   -4.2520    5.1045 C   0  0  0  0  0  0  0  0  0  0  0  0
   -3.3366   -5.5088    5.2471 C   0  0  0  0  0  0  0  0  0  0  0  0
   -2.3636   -3.5079    6.3742 C   0  0  0  0  0  0  0  0  0  0  0  0
   -2.4146   -3.9224    2.6306 N   0  0  0  0  0  0  0  0  0  0  0  0
   -3.1345   -3.7325    1.4743 C   0  0  0  0  0  0  0  0  0  0  0  0
   -2.6856   -4.1118    0.0816 C   0  0  0  0  0  0  0  0  0  0  0  0
   -3.8570   -4.4039   -0.8558 C   0  0  0  0  0  0  0  0  0  0  0  0
   -3.3709   -4.6408   -2.2533 C   0  0  0  0  0  0  0  0  0  0  0  0
   -2.4762   -3.5558   -2.6968 N   0  0  0  0  0  0  0  0  0  0  0  0
   -2.6352   -2.8756   -3.8751 C   0  0  0  0  0  0  0  0  0  0  0  0
   -3.8250   -2.8850   -4.5717 C   0  0  0  0  0  0  0  0  0  0  0  0
   -4.7328   -2.8852   -5.2718 C   0  0  0  0  0  0  0  0  0  0  0  0
   -5.9404   -3.0237   -5.9917 C   0  0  0  0  0  0  0  0  0  0  0  0
   -5.6898   -3.7917   -7.1888 N   0  0  0  0  0  0  0  0  0  0  0  0
   -5.3265   -3.1346   -8.3768 C   0  0  0  0  0  0  0  0  0  0  0  0
   -5.3556   -5.1671   -7.0701 C   0  0  0  0  0  0  0  0  0  0  0  0
   -6.9718   -3.7192   -5.1172 C   0  0  0  0  0  0  0  0  0  0  0  0
   -6.5143   -1.6718   -6.3370 C   0  0  0  0  0  0  0  0  0  0  0  0
   -1.6970   -2.2011   -4.3199 O   0  0  0  0  0  0  0  0  0  0  0  0
   -1.3998   -3.2027   -1.8208 C   0  0  0  0  0  0  0  0  0  0  0  0
   -1.8921   -2.9277   -0.4483 C   0  0  0  0  0  0  0  0  0  0  0  0
   -4.2355   -3.1574    1.5782 O   0  0  0  0  0  0  0  0  0  0  0  0
   -1.0657   -4.5163    2.6427 C   0  0  0  0  0  0  0  0  0  0  0  0
   -1.5385   -1.5236    3.5350 O   0  0  0  0  0  0  0  0  0  0  0  0
   -4.6823    0.9844    3.5816 C   0  0  0  0  0  0  0  0  0  0  0  0
   -4.8999    0.5637    2.1070 C   0  0  0  0  0  0  0  0  0  0  0  0
   -3.8861    1.2829    1.2866 C   0  0  0  0  0  0  0  0  0  0  0  0
   -4.0717    1.0653   -0.1227 N   0  0  0  0  0  0  0  0  0  0  0  0
   -5.4281    1.2810   -0.6227 C   0  0  0  0  0  0  0  0  0  0  0  0
   -6.4732    0.6537    0.3086 C   0  0  0  0  0  0  0  0  0  0  0  0
   -6.2247    0.9896    1.7130 O   0  0  0  0  0  0  0  0  0  0  0  0
   -3.9065    0.5468    6.5844 O   0  0  0  0  0  0  0  0  0  0  0  0
   -2.0943    2.6721    7.0283 C   0  0  0  0  0  0  0  0  0  0  0  0
   -2.1718    4.2001    6.8465 C   0  0  0  0  0  0  0  0  0  0  0  0
   -1.3704    4.6957    5.6308 C   0  0  0  0  0  0  0  0  0  0  0  0
   -0.7107    5.4423    2.8955 O   0  0  0  0  0  0  0  0  0  0  0  0
   -0.5932    1.0103   -1.2700 C   0  0  0  0  0  0  0  0  0  0  0  0
   -0.7386    0.8789   -2.6500 C   0  0  0  0  0  0  0  0  0  0  0  0
   -2.0522    0.8531   -3.2169 C   0  0  0  0  0  0  0  0  0  0  0  0
   -3.1244    0.9243   -2.3430 C   0  0  0  0  0  0  0  0  0  0  0  0
   -2.9602    1.0306   -0.9656 C   0  0  0  0  0  0  0  0  0  0  0  0
   -1.6751    1.0849   -0.4032 C   0  0  0  0  0  0  0  0  0  0  0  0
   -1.9046   -5.2448    0.0785 F   0  0  0  0  0  0  0  0  0  0  0  0
  1  2  1  0  0  0  0
  2  3  1  0  0  0  0
  2  5  1  0  0  0  0
  3  4  1  0  0  0  0
  5  6  4  0  0  0  0
  5 10  4  0  0  0  0
  6  7  4  0  0  0  0
  7  8  4  0  0  0  0
  8  9  4  0  0  0  0
  9 10  4  0  0  0  0
 10 11  1  0  0  0  0
 11 12  4  0  0  0  0
 11 15  4  0  0  0  0
 12 13  1  0  0  0  0
 12 68  4  0  0  0  0
 13 14  1  0  0  0  0
 15 16  1  0  0  0  0
 15 67  4  0  0  0  0
 16 17  1  0  0  0  0
 17 18  1  0  0  0  0
 17 19  1  0  0  0  0
 17 20  1  0  0  0  0
 20 21  1  0  0  0  0
 21 22  1  0  0  0  0
 22 23  1  0  0  0  0
 22 66  2  0  0  0  0
 23 24  1  0  0  0  0
 23 65  1  0  0  0  0
 24 25  1  0  0  0  0
 25 26  1  0  0  0  0
 25 63  1  0  0  0  0
 26 27  1  0  0  0  0
 26 62  2  0  0  0  0
 27 28  1  0  0  0  0
 27 55  1  0  0  0  0
 28 29  1  0  0  0  0
 29 30  1  0  0  0  0
 29 54  2  0  0  0  0
 30 31  1  0  0  0  0
 30 34  1  0  0  0  0
 31 32  1  0  0  0  0
 31 33  1  0  0  0  0
 34 35  1  0  0  0  0
 34 53  1  0  0  0  0
 35 36  1  0  0  0  0
 35 52  2  0  0  0  0
 36 37  1  0  0  0  0
 36 51  1  0  0  0  0
 36 73  1  0  0  0  0
 37 38  1  0  0  0  0
 38 39  1  0  0  0  0
 39 40  1  0  0  0  0
 39 50  1  0  0  0  0
 40 41  1  0  0  0  0
 40 49  2  0  0  0  0
 41 42  1  0  0  0  0
 42 43  1  0  0  0  0
 43 44  1  0  0  0  0
 43 47  1  0  0  0  0
 43 48  1  0  0  0  0
 44 45  1  0  0  0  0
 44 46  1  0  0  0  0
 50 51  1  0  0  0  0
 55 56  1  0  0  0  0
 56 57  1  0  0  0  0
 56 61  1  0  0  0  0
 57 58  1  0  0  0  0
 58 59  1  0  0  0  0
 58 71  1  0  0  0  0
 59 60  1  0  0  0  0
 60 61  1  0  0  0  0
 63 64  1  0  0  0  0
 64 65  1  0  0  0  0
 67 68  4  0  0  0  0
 67 72  4  0  0  0  0
 68 69  4  0  0  0  0
 69 70  4  0  0  0  0
 70 71  4  0  0  0  0
 71 72  4  0  0  0  0
M  END
$$$$
