mol_ETKDG4_243
  PyMOL3.1          3D                             0

 73 79  0  0  0  0  0  0  0  0999 V2000
   -5.4678   -7.2119   -1.0116 C   0  0  0  0  0  0  0  0  0  0  0  0
   -4.7962   -6.4351   -2.0972 C   0  0  0  0  0  0  0  0  0  0  0  0
   -5.6117   -6.2331   -3.2398 O   0  0  0  0  0  0  0  0  0  0  0  0
   -6.6705   -5.3172   -3.1596 C   0  0  0  0  0  0  0  0  0  0  0  0
   -3.5447   -7.0676   -2.5909 C   0  0  0  0  0  0  0  0  0  0  0  0
   -3.6907   -8.1439   -3.3459 N   0  0  0  0  0  0  0  0  0  0  0  0
   -2.6308   -8.8243   -3.8128 C   0  0  0  0  0  0  0  0  0  0  0  0
   -1.3288   -8.4283   -3.5267 C   0  0  0  0  0  0  0  0  0  0  0  0
   -1.1544   -7.2998   -2.7321 C   0  0  0  0  0  0  0  0  0  0  0  0
   -2.2667   -6.5997   -2.2704 C   0  0  0  0  0  0  0  0  0  0  0  0
   -2.0306   -5.3868   -1.4983 C   0  0  0  0  0  0  0  0  0  0  0  0
   -2.2046   -5.2459   -0.1552 N   0  0  0  0  0  0  0  0  0  0  0  0
   -2.6184   -6.3075    0.8188 C   0  0  0  0  0  0  0  0  0  0  0  0
   -1.4503   -6.8880    1.5262 C   0  0  0  0  0  0  0  0  0  0  0  0
   -1.5828   -4.1616   -2.0305 C   0  0  0  0  0  0  0  0  0  0  0  0
   -1.2349   -3.8087   -3.4044 C   0  0  0  0  0  0  0  0  0  0  0  0
   -2.3637   -3.2049   -4.2893 C   0  0  0  0  0  0  0  0  0  0  0  0
   -3.2441   -4.2588   -4.8881 C   0  0  0  0  0  0  0  0  0  0  0  0
   -3.2193   -2.2196   -3.5949 C   0  0  0  0  0  0  0  0  0  0  0  0
   -1.7284   -2.5096   -5.4146 C   0  0  0  0  0  0  0  0  0  0  0  0
   -0.6665   -1.5108   -5.0492 O   0  0  0  0  0  0  0  0  0  0  0  0
    0.5395   -1.4493   -5.7701 C   0  0  0  0  0  0  0  0  0  0  0  0
    1.2548   -0.1525   -5.8321 C   0  0  0  0  0  0  0  0  0  0  0  0
    0.3609    0.9457   -5.5053 N   0  0  0  0  0  0  0  0  0  0  0  0
    0.8895    2.2041   -5.7136 N   0  0  0  0  0  0  0  0  0  0  0  0
    0.9305    3.1335   -4.7537 C   0  0  0  0  0  0  0  0  0  0  0  0
    0.2004    3.0071   -3.4451 C   0  0  0  0  0  0  0  0  0  0  0  0
    0.0122    4.3512   -3.0421 N   0  0  0  0  0  0  0  0  0  0  0  0
   -1.1037    4.9607   -2.8333 C   0  0  0  0  0  0  0  0  0  0  0  0
   -1.0405    6.4098   -2.5471 C   0  0  0  0  0  0  0  0  0  0  0  0
   -1.7625    7.2873   -3.5462 C   0  0  0  0  0  0  0  0  0  0  0  0
   -3.0937    6.8809   -3.9994 C   0  0  0  0  0  0  0  0  0  0  0  0
   -0.8644    7.9534   -4.5231 C   0  0  0  0  0  0  0  0  0  0  0  0
   -1.3146    6.7711   -1.1848 N   0  0  0  0  0  0  0  0  0  0  0  0
   -0.2508    7.1121   -0.3850 C   0  0  0  0  0  0  0  0  0  0  0  0
   -0.3660    7.7376    0.9619 C   0  0  0  0  0  0  0  0  0  0  0  0
    0.8254    8.6782    1.2316 C   0  0  0  0  0  0  0  0  0  0  0  0
    0.7337    9.3360    2.4912 C   0  0  0  0  0  0  0  0  0  0  0  0
    0.4689    8.3957    3.5643 N   0  0  0  0  0  0  0  0  0  0  0  0
    1.1867    8.5538    4.6937 C   0  0  0  0  0  0  0  0  0  0  0  0
    0.6292    8.2493    5.9052 C   0  0  0  0  0  0  0  0  0  0  0  0
    0.3090    8.2736    6.9894 C   0  0  0  0  0  0  0  0  0  0  0  0
   -0.2427    8.2004    8.2743 C   0  0  0  0  0  0  0  0  0  0  0  0
    0.5576    9.0207    9.1794 N   0  0  0  0  0  0  0  0  0  0  0  0
    0.3593   10.4317    9.1253 C   0  0  0  0  0  0  0  0  0  0  0  0
    1.8877    8.5999    9.4540 C   0  0  0  0  0  0  0  0  0  0  0  0
   -0.2800    6.7773    8.7601 C   0  0  0  0  0  0  0  0  0  0  0  0
   -1.6734    8.7094    8.2372 C   0  0  0  0  0  0  0  0  0  0  0  0
    2.3199    9.0389    4.6694 O   0  0  0  0  0  0  0  0  0  0  0  0
   -0.5559    7.3795    3.3659 C   0  0  0  0  0  0  0  0  0  0  0  0
   -0.4494    6.7014    2.0658 C   0  0  0  0  0  0  0  0  0  0  0  0
    0.8909    6.9330   -0.8356 O   0  0  0  0  0  0  0  0  0  0  0  0
   -2.6877    6.6922   -0.6889 C   0  0  0  0  0  0  0  0  0  0  0  0
   -2.0945    4.2847   -2.7678 O   0  0  0  0  0  0  0  0  0  0  0  0
    1.0026    2.3096   -2.3100 C   0  0  0  0  0  0  0  0  0  0  0  0
    0.1765    2.0152   -1.0127 C   0  0  0  0  0  0  0  0  0  0  0  0
    0.1214    0.5663   -0.9000 C   0  0  0  0  0  0  0  0  0  0  0  0
   -0.5434    0.1032    0.2931 N   0  0  0  0  0  0  0  0  0  0  0  0
   -0.0781    0.7234    1.5359 C   0  0  0  0  0  0  0  0  0  0  0  0
    0.0976    2.2105    1.3860 C   0  0  0  0  0  0  0  0  0  0  0  0
    0.8285    2.5531    0.1532 O   0  0  0  0  0  0  0  0  0  0  0  0
    1.6080    4.1486   -4.9389 O   0  0  0  0  0  0  0  0  0  0  0  0
    1.3456    2.4743   -7.0704 C   0  0  0  0  0  0  0  0  0  0  0  0
    2.3585    1.4074   -7.4797 C   0  0  0  0  0  0  0  0  0  0  0  0
    1.8246    0.0376   -7.2446 C   0  0  0  0  0  0  0  0  0  0  0  0
    1.1075   -2.4240   -6.3463 O   0  0  0  0  0  0  0  0  0  0  0  0
   -1.4816   -3.2914   -0.9179 C   0  0  0  0  0  0  0  0  0  0  0  0
   -1.8718   -3.9824    0.2042 C   0  0  0  0  0  0  0  0  0  0  0  0
   -1.8479   -3.2844    1.4704 C   0  0  0  0  0  0  0  0  0  0  0  0
   -1.4276   -1.9203    1.4829 C   0  0  0  0  0  0  0  0  0  0  0  0
   -1.0034   -1.2492    0.3064 C   0  0  0  0  0  0  0  0  0  0  0  0
   -1.0761   -1.9448   -0.9023 C   0  0  0  0  0  0  0  0  0  0  0  0
   -1.4943    8.5186    1.0488 F   0  0  0  0  0  0  0  0  0  0  0  0
  1  2  1  0  0  0  0
  2  3  1  0  0  0  0
  2  5  1  0  0  0  0
  3  4  1  0  0  0  0
  5  6  4  0  0  0  0
  5 10  4  0  0  0  0
  6  7  4  0  0  0  0
  7  8  4  0  0  0  0
  8  9  4  0  0  0  0
  9 10  4  0  0  0  0
 10 11  1  0  0  0  0
 11 12  4  0  0  0  0
 11 15  4  0  0  0  0
 12 13  1  0  0  0  0
 12 68  4  0  0  0  0
 13 14  1  0  0  0  0
 15 16  1  0  0  0  0
 15 67  4  0  0  0  0
 16 17  1  0  0  0  0
 17 18  1  0  0  0  0
 17 19  1  0  0  0  0
 17 20  1  0  0  0  0
 20 21  1  0  0  0  0
 21 22  1  0  0  0  0
 22 23  1  0  0  0  0
 22 66  2  0  0  0  0
 23 24  1  0  0  0  0
 23 65  1  0  0  0  0
 24 25  1  0  0  0  0
 25 26  1  0  0  0  0
 25 63  1  0  0  0  0
 26 27  1  0  0  0  0
 26 62  2  0  0  0  0
 27 28  1  0  0  0  0
 27 55  1  0  0  0  0
 28 29  1  0  0  0  0
 29 30  1  0  0  0  0
 29 54  2  0  0  0  0
 30 31  1  0  0  0  0
 30 34  1  0  0  0  0
 31 32  1  0  0  0  0
 31 33  1  0  0  0  0
 34 35  1  0  0  0  0
 34 53  1  0  0  0  0
 35 36  1  0  0  0  0
 35 52  2  0  0  0  0
 36 37  1  0  0  0  0
 36 51  1  0  0  0  0
 36 73  1  0  0  0  0
 37 38  1  0  0  0  0
 38 39  1  0  0  0  0
 39 40  1  0  0  0  0
 39 50  1  0  0  0  0
 40 41  1  0  0  0  0
 40 49  2  0  0  0  0
 41 42  1  0  0  0  0
 42 43  1  0  0  0  0
 43 44  1  0  0  0  0
 43 47  1  0  0  0  0
 43 48  1  0  0  0  0
 44 45  1  0  0  0  0
 44 46  1  0  0  0  0
 50 51  1  0  0  0  0
 55 56  1  0  0  0  0
 56 57  1  0  0  0  0
 56 61  1  0  0  0  0
 57 58  1  0  0  0  0
 58 59  1  0  0  0  0
 58 71  1  0  0  0  0
 59 60  1  0  0  0  0
 60 61  1  0  0  0  0
 63 64  1  0  0  0  0
 64 65  1  0  0  0  0
 67 68  4  0  0  0  0
 67 72  4  0  0  0  0
 68 69  4  0  0  0  0
 69 70  4  0  0  0  0
 70 71  4  0  0  0  0
 71 72  4  0  0  0  0
M  END
$$$$
