mol_ETKDG5_264
  PyMOL3.1          3D                             0

 73 79  0  0  0  0  0  0  0  0999 V2000
    3.3999   -3.4945   -2.8804 C   0  0  0  0  0  0  0  0  0  0  0  0
    2.9404   -2.1383   -2.5070 C   0  0  0  0  0  0  0  0  0  0  0  0
    3.9271   -1.3092   -1.9162 O   0  0  0  0  0  0  0  0  0  0  0  0
    4.2657   -1.5695   -0.5758 C   0  0  0  0  0  0  0  0  0  0  0  0
    2.3845   -1.3930   -3.6521 C   0  0  0  0  0  0  0  0  0  0  0  0
    3.2252   -0.8298   -4.5009 N   0  0  0  0  0  0  0  0  0  0  0  0
    2.7857   -0.1693   -5.5940 C   0  0  0  0  0  0  0  0  0  0  0  0
    1.4208   -0.0604   -5.8864 C   0  0  0  0  0  0  0  0  0  0  0  0
    0.5143   -0.6574   -5.0088 C   0  0  0  0  0  0  0  0  0  0  0  0
    1.0143   -1.3131   -3.8735 C   0  0  0  0  0  0  0  0  0  0  0  0
    0.0679   -1.8859   -2.9543 C   0  0  0  0  0  0  0  0  0  0  0  0
   -0.5423   -3.0801   -3.1618 N   0  0  0  0  0  0  0  0  0  0  0  0
   -0.3488   -4.0325   -4.3086 C   0  0  0  0  0  0  0  0  0  0  0  0
   -1.4687   -4.0198   -5.2547 C   0  0  0  0  0  0  0  0  0  0  0  0
   -0.2930   -1.3429   -1.6932 C   0  0  0  0  0  0  0  0  0  0  0  0
    0.2140   -0.1298   -0.9397 C   0  0  0  0  0  0  0  0  0  0  0  0
   -0.4942    1.2609   -1.2412 C   0  0  0  0  0  0  0  0  0  0  0  0
   -0.1994    1.7684   -2.6387 C   0  0  0  0  0  0  0  0  0  0  0  0
    0.1201    2.2871   -0.3227 C   0  0  0  0  0  0  0  0  0  0  0  0
   -1.9920    1.2203   -1.0353 C   0  0  0  0  0  0  0  0  0  0  0  0
   -2.4643    1.4964    0.3805 O   0  0  0  0  0  0  0  0  0  0  0  0
   -3.6330    2.2515    0.7041 C   0  0  0  0  0  0  0  0  0  0  0  0
   -4.0225    2.4222    2.1669 C   0  0  0  0  0  0  0  0  0  0  0  0
   -2.9367    2.0475    3.0267 N   0  0  0  0  0  0  0  0  0  0  0  0
   -3.1296    2.1640    4.4043 N   0  0  0  0  0  0  0  0  0  0  0  0
   -2.9225    1.0935    5.2395 C   0  0  0  0  0  0  0  0  0  0  0  0
   -2.5612   -0.2301    4.6212 C   0  0  0  0  0  0  0  0  0  0  0  0
   -1.6668   -1.0205    5.4444 N   0  0  0  0  0  0  0  0  0  0  0  0
   -0.3721   -1.2308    5.1575 C   0  0  0  0  0  0  0  0  0  0  0  0
    0.3494   -2.2304    6.0051 C   0  0  0  0  0  0  0  0  0  0  0  0
    1.1935   -1.5644    7.1478 C   0  0  0  0  0  0  0  0  0  0  0  0
    1.8528   -2.5579    8.0445 C   0  0  0  0  0  0  0  0  0  0  0  0
    0.3922   -0.5577    7.9273 C   0  0  0  0  0  0  0  0  0  0  0  0
    1.1504   -3.0519    5.0770 N   0  0  0  0  0  0  0  0  0  0  0  0
    0.5378   -4.1022    4.4128 C   0  0  0  0  0  0  0  0  0  0  0  0
    1.2032   -4.9735    3.3689 C   0  0  0  0  0  0  0  0  0  0  0  0
    0.4507   -6.2855    3.1071 C   0  0  0  0  0  0  0  0  0  0  0  0
    1.0741   -7.0522    1.9859 C   0  0  0  0  0  0  0  0  0  0  0  0
    1.2436   -6.1980    0.7947 N   0  0  0  0  0  0  0  0  0  0  0  0
    0.8117   -6.5534   -0.4518 C   0  0  0  0  0  0  0  0  0  0  0  0
   -0.0224   -7.6387   -0.6387 C   0  0  0  0  0  0  0  0  0  0  0  0
   -0.6769   -8.5482   -0.9177 C   0  0  0  0  0  0  0  0  0  0  0  0
   -1.5165   -9.6697   -1.1003 C   0  0  0  0  0  0  0  0  0  0  0  0
   -1.4076  -10.1519   -2.4379 N   0  0  0  0  0  0  0  0  0  0  0  0
   -0.2258  -10.8224   -2.8339 C   0  0  0  0  0  0  0  0  0  0  0  0
   -2.2376   -9.6623   -3.4688 C   0  0  0  0  0  0  0  0  0  0  0  0
   -1.1234  -10.7689   -0.1140 C   0  0  0  0  0  0  0  0  0  0  0  0
   -2.9440   -9.2962   -0.7741 C   0  0  0  0  0  0  0  0  0  0  0  0
    1.1361   -5.8723   -1.4347 O   0  0  0  0  0  0  0  0  0  0  0  0
    1.8883   -4.9345    0.9887 C   0  0  0  0  0  0  0  0  0  0  0  0
    1.2347   -4.1645    2.0779 C   0  0  0  0  0  0  0  0  0  0  0  0
   -0.6593   -4.3226    4.6750 O   0  0  0  0  0  0  0  0  0  0  0  0
    2.5391   -2.6439    4.7873 C   0  0  0  0  0  0  0  0  0  0  0  0
    0.1339   -0.7060    4.1781 O   0  0  0  0  0  0  0  0  0  0  0  0
   -3.8888   -1.0500    4.3970 C   0  0  0  0  0  0  0  0  0  0  0  0
   -3.6928   -2.4261    3.7294 C   0  0  0  0  0  0  0  0  0  0  0  0
   -3.5080   -2.1788    2.2802 C   0  0  0  0  0  0  0  0  0  0  0  0
   -3.3980   -3.4041    1.5423 N   0  0  0  0  0  0  0  0  0  0  0  0
   -4.5075   -4.3510    1.7743 C   0  0  0  0  0  0  0  0  0  0  0  0
   -4.7647   -4.5138    3.2806 C   0  0  0  0  0  0  0  0  0  0  0  0
   -4.8988   -3.2077    3.9410 O   0  0  0  0  0  0  0  0  0  0  0  0
   -3.0860    1.1736    6.4644 O   0  0  0  0  0  0  0  0  0  0  0  0
   -3.4826    3.5036    4.8788 C   0  0  0  0  0  0  0  0  0  0  0  0
   -4.6659    4.0412    4.0323 C   0  0  0  0  0  0  0  0  0  0  0  0
   -4.4267    3.8859    2.5211 C   0  0  0  0  0  0  0  0  0  0  0  0
   -4.3707    2.7907   -0.1423 O   0  0  0  0  0  0  0  0  0  0  0  0
   -1.2109   -2.2806   -1.1924 C   0  0  0  0  0  0  0  0  0  0  0  0
   -1.3275   -3.3242   -2.1112 C   0  0  0  0  0  0  0  0  0  0  0  0
   -2.1756   -4.4395   -1.8097 C   0  0  0  0  0  0  0  0  0  0  0  0
   -2.8413   -4.4234   -0.5880 C   0  0  0  0  0  0  0  0  0  0  0  0
   -2.7160   -3.3717    0.3183 C   0  0  0  0  0  0  0  0  0  0  0  0
   -1.8789   -2.2791    0.0221 C   0  0  0  0  0  0  0  0  0  0  0  0
    2.4820   -5.3238    3.7559 F   0  0  0  0  0  0  0  0  0  0  0  0
  1  2  1  0  0  0  0
  2  3  1  0  0  0  0
  2  5  1  0  0  0  0
  3  4  1  0  0  0  0
  5  6  4  0  0  0  0
  5 10  4  0  0  0  0
  6  7  4  0  0  0  0
  7  8  4  0  0  0  0
  8  9  4  0  0  0  0
  9 10  4  0  0  0  0
 10 11  1  0  0  0  0
 11 12  4  0  0  0  0
 11 15  4  0  0  0  0
 12 13  1  0  0  0  0
 12 68  4  0  0  0  0
 13 14  1  0  0  0  0
 15 16  1  0  0  0  0
 15 67  4  0  0  0  0
 16 17  1  0  0  0  0
 17 18  1  0  0  0  0
 17 19  1  0  0  0  0
 17 20  1  0  0  0  0
 20 21  1  0  0  0  0
 21 22  1  0  0  0  0
 22 23  1  0  0  0  0
 22 66  2  0  0  0  0
 23 24  1  0  0  0  0
 23 65  1  0  0  0  0
 24 25  1  0  0  0  0
 25 26  1  0  0  0  0
 25 63  1  0  0  0  0
 26 27  1  0  0  0  0
 26 62  2  0  0  0  0
 27 28  1  0  0  0  0
 27 55  1  0  0  0  0
 28 29  1  0  0  0  0
 29 30  1  0  0  0  0
 29 54  2  0  0  0  0
 30 31  1  0  0  0  0
 30 34  1  0  0  0  0
 31 32  1  0  0  0  0
 31 33  1  0  0  0  0
 34 35  1  0  0  0  0
 34 53  1  0  0  0  0
 35 36  1  0  0  0  0
 35 52  2  0  0  0  0
 36 37  1  0  0  0  0
 36 51  1  0  0  0  0
 36 73  1  0  0  0  0
 37 38  1  0  0  0  0
 38 39  1  0  0  0  0
 39 40  1  0  0  0  0
 39 50  1  0  0  0  0
 40 41  1  0  0  0  0
 40 49  2  0  0  0  0
 41 42  1  0  0  0  0
 42 43  1  0  0  0  0
 43 44  1  0  0  0  0
 43 47  1  0  0  0  0
 43 48  1  0  0  0  0
 44 45  1  0  0  0  0
 44 46  1  0  0  0  0
 50 51  1  0  0  0  0
 55 56  1  0  0  0  0
 56 57  1  0  0  0  0
 56 61  1  0  0  0  0
 57 58  1  0  0  0  0
 58 59  1  0  0  0  0
 58 71  1  0  0  0  0
 59 60  1  0  0  0  0
 60 61  1  0  0  0  0
 63 64  1  0  0  0  0
 64 65  1  0  0  0  0
 67 68  4  0  0  0  0
 67 72  4  0  0  0  0
 68 69  4  0  0  0  0
 69 70  4  0  0  0  0
 70 71  4  0  0  0  0
 71 72  4  0  0  0  0
M  END
$$$$
