mol_ETKDG4_250
  PyMOL3.1          3D                             0

 73 79  0  0  0  0  0  0  0  0999 V2000
    1.0096    0.2985    4.7137 C   0  0  0  0  0  0  0  0  0  0  0  0
    1.9496    0.7828    3.6801 C   0  0  0  0  0  0  0  0  0  0  0  0
    2.5005    2.0600    3.8945 O   0  0  0  0  0  0  0  0  0  0  0  0
    1.6464    3.1779    3.7358 C   0  0  0  0  0  0  0  0  0  0  0  0
    3.0635   -0.1600    3.4372 C   0  0  0  0  0  0  0  0  0  0  0  0
    4.0487   -0.2131    4.3200 N   0  0  0  0  0  0  0  0  0  0  0  0
    5.0674   -1.0913    4.1861 C   0  0  0  0  0  0  0  0  0  0  0  0
    5.1227   -1.9978    3.1156 C   0  0  0  0  0  0  0  0  0  0  0  0
    4.0823   -1.9670    2.1720 C   0  0  0  0  0  0  0  0  0  0  0  0
    3.0583   -1.0058    2.3347 C   0  0  0  0  0  0  0  0  0  0  0  0
    2.0146   -0.9300    1.3371 C   0  0  0  0  0  0  0  0  0  0  0  0
    0.9333   -1.7492    1.3277 N   0  0  0  0  0  0  0  0  0  0  0  0
    0.6108   -2.8558    2.3008 C   0  0  0  0  0  0  0  0  0  0  0  0
    0.8223   -4.1946    1.7223 C   0  0  0  0  0  0  0  0  0  0  0  0
    1.9116    0.0454    0.3090 C   0  0  0  0  0  0  0  0  0  0  0  0
    2.7904    1.2333   -0.0172 C   0  0  0  0  0  0  0  0  0  0  0  0
    3.9940    0.9409   -1.0033 C   0  0  0  0  0  0  0  0  0  0  0  0
    4.8632    2.1962   -1.0970 C   0  0  0  0  0  0  0  0  0  0  0  0
    4.9197   -0.1033   -0.4927 C   0  0  0  0  0  0  0  0  0  0  0  0
    3.4811    0.5384   -2.3678 C   0  0  0  0  0  0  0  0  0  0  0  0
    3.0362    1.7052   -3.2347 O   0  0  0  0  0  0  0  0  0  0  0  0
    3.4077    1.8668   -4.6055 C   0  0  0  0  0  0  0  0  0  0  0  0
    2.8849    3.0604   -5.3892 C   0  0  0  0  0  0  0  0  0  0  0  0
    2.2423    4.0091   -4.5230 N   0  0  0  0  0  0  0  0  0  0  0  0
    1.7187    5.1566   -5.1317 N   0  0  0  0  0  0  0  0  0  0  0  0
    0.3996    5.5001   -4.9956 C   0  0  0  0  0  0  0  0  0  0  0  0
   -0.4805    4.6494   -4.1313 C   0  0  0  0  0  0  0  0  0  0  0  0
   -1.4269    5.4545   -3.3924 N   0  0  0  0  0  0  0  0  0  0  0  0
   -1.2755    5.7462   -2.0928 C   0  0  0  0  0  0  0  0  0  0  0  0
   -2.4122    6.4394   -1.4231 C   0  0  0  0  0  0  0  0  0  0  0  0
   -2.2775    7.9643   -1.2497 C   0  0  0  0  0  0  0  0  0  0  0  0
   -3.5581    8.7127   -1.2581 C   0  0  0  0  0  0  0  0  0  0  0  0
   -1.1314    8.6299   -1.9029 C   0  0  0  0  0  0  0  0  0  0  0  0
   -2.6312    5.7559   -0.1523 N   0  0  0  0  0  0  0  0  0  0  0  0
   -3.3638    4.5899   -0.1706 C   0  0  0  0  0  0  0  0  0  0  0  0
   -3.6281    3.7185    1.0371 C   0  0  0  0  0  0  0  0  0  0  0  0
   -4.8059    2.7603    0.8133 C   0  0  0  0  0  0  0  0  0  0  0  0
   -4.9762    1.8339    1.9776 C   0  0  0  0  0  0  0  0  0  0  0  0
   -3.7022    1.1548    2.2775 N   0  0  0  0  0  0  0  0  0  0  0  0
   -3.5798   -0.2090    2.3589 C   0  0  0  0  0  0  0  0  0  0  0  0
   -4.5294   -1.0624    1.8112 C   0  0  0  0  0  0  0  0  0  0  0  0
   -5.2915   -1.8534    1.4233 C   0  0  0  0  0  0  0  0  0  0  0  0
   -6.3117   -2.6737    0.8971 C   0  0  0  0  0  0  0  0  0  0  0  0
   -7.1341   -3.1733    1.9463 N   0  0  0  0  0  0  0  0  0  0  0  0
   -6.6242   -4.1321    2.8524 C   0  0  0  0  0  0  0  0  0  0  0  0
   -8.4455   -2.7077    2.1801 C   0  0  0  0  0  0  0  0  0  0  0  0
   -5.7022   -3.8377    0.1075 C   0  0  0  0  0  0  0  0  0  0  0  0
   -7.1302   -1.8737   -0.1035 C   0  0  0  0  0  0  0  0  0  0  0  0
   -2.5698   -0.7057    2.8797 O   0  0  0  0  0  0  0  0  0  0  0  0
   -2.5546    2.0001    2.4629 C   0  0  0  0  0  0  0  0  0  0  0  0
   -2.3675    2.8942    1.2774 C   0  0  0  0  0  0  0  0  0  0  0  0
   -3.8156    4.2128   -1.2680 O   0  0  0  0  0  0  0  0  0  0  0  0
   -1.9690    6.2690    1.0603 C   0  0  0  0  0  0  0  0  0  0  0  0
   -0.2941    5.3264   -1.4834 O   0  0  0  0  0  0  0  0  0  0  0  0
   -1.2581    3.5810   -5.0045 C   0  0  0  0  0  0  0  0  0  0  0  0
   -2.0940    2.5726   -4.1624 C   0  0  0  0  0  0  0  0  0  0  0  0
   -1.1411    1.5698   -3.6037 C   0  0  0  0  0  0  0  0  0  0  0  0
   -1.8249    0.5223   -2.8808 N   0  0  0  0  0  0  0  0  0  0  0  0
   -2.9068   -0.1352   -3.6249 C   0  0  0  0  0  0  0  0  0  0  0  0
   -3.8121    0.9062   -4.3066 C   0  0  0  0  0  0  0  0  0  0  0  0
   -3.0193    1.8981   -5.0527 O   0  0  0  0  0  0  0  0  0  0  0  0
   -0.0872    6.4895   -5.5754 O   0  0  0  0  0  0  0  0  0  0  0  0
    2.6872    5.9764   -5.8672 C   0  0  0  0  0  0  0  0  0  0  0  0
    3.4746    5.0714   -6.8449 C   0  0  0  0  0  0  0  0  0  0  0  0
    4.0230    3.8028   -6.1645 C   0  0  0  0  0  0  0  0  0  0  0  0
    4.1503    1.0696   -5.2320 O   0  0  0  0  0  0  0  0  0  0  0  0
    0.7026   -0.2778   -0.3329 C   0  0  0  0  0  0  0  0  0  0  0  0
    0.1391   -1.3707    0.3210 C   0  0  0  0  0  0  0  0  0  0  0  0
   -1.1303   -1.8779   -0.1191 C   0  0  0  0  0  0  0  0  0  0  0  0
   -1.7528   -1.2207   -1.1800 C   0  0  0  0  0  0  0  0  0  0  0  0
   -1.1743   -0.1164   -1.8207 C   0  0  0  0  0  0  0  0  0  0  0  0
    0.0771    0.3656   -1.3939 C   0  0  0  0  0  0  0  0  0  0  0  0
   -3.9301    4.4835    2.1439 F   0  0  0  0  0  0  0  0  0  0  0  0
  1  2  1  0  0  0  0
  2  3  1  0  0  0  0
  2  5  1  0  0  0  0
  3  4  1  0  0  0  0
  5  6  4  0  0  0  0
  5 10  4  0  0  0  0
  6  7  4  0  0  0  0
  7  8  4  0  0  0  0
  8  9  4  0  0  0  0
  9 10  4  0  0  0  0
 10 11  1  0  0  0  0
 11 12  4  0  0  0  0
 11 15  4  0  0  0  0
 12 13  1  0  0  0  0
 12 68  4  0  0  0  0
 13 14  1  0  0  0  0
 15 16  1  0  0  0  0
 15 67  4  0  0  0  0
 16 17  1  0  0  0  0
 17 18  1  0  0  0  0
 17 19  1  0  0  0  0
 17 20  1  0  0  0  0
 20 21  1  0  0  0  0
 21 22  1  0  0  0  0
 22 23  1  0  0  0  0
 22 66  2  0  0  0  0
 23 24  1  0  0  0  0
 23 65  1  0  0  0  0
 24 25  1  0  0  0  0
 25 26  1  0  0  0  0
 25 63  1  0  0  0  0
 26 27  1  0  0  0  0
 26 62  2  0  0  0  0
 27 28  1  0  0  0  0
 27 55  1  0  0  0  0
 28 29  1  0  0  0  0
 29 30  1  0  0  0  0
 29 54  2  0  0  0  0
 30 31  1  0  0  0  0
 30 34  1  0  0  0  0
 31 32  1  0  0  0  0
 31 33  1  0  0  0  0
 34 35  1  0  0  0  0
 34 53  1  0  0  0  0
 35 36  1  0  0  0  0
 35 52  2  0  0  0  0
 36 37  1  0  0  0  0
 36 51  1  0  0  0  0
 36 73  1  0  0  0  0
 37 38  1  0  0  0  0
 38 39  1  0  0  0  0
 39 40  1  0  0  0  0
 39 50  1  0  0  0  0
 40 41  1  0  0  0  0
 40 49  2  0  0  0  0
 41 42  1  0  0  0  0
 42 43  1  0  0  0  0
 43 44  1  0  0  0  0
 43 47  1  0  0  0  0
 43 48  1  0  0  0  0
 44 45  1  0  0  0  0
 44 46  1  0  0  0  0
 50 51  1  0  0  0  0
 55 56  1  0  0  0  0
 56 57  1  0  0  0  0
 56 61  1  0  0  0  0
 57 58  1  0  0  0  0
 58 59  1  0  0  0  0
 58 71  1  0  0  0  0
 59 60  1  0  0  0  0
 60 61  1  0  0  0  0
 63 64  1  0  0  0  0
 64 65  1  0  0  0  0
 67 68  4  0  0  0  0
 67 72  4  0  0  0  0
 68 69  4  0  0  0  0
 69 70  4  0  0  0  0
 70 71  4  0  0  0  0
 71 72  4  0  0  0  0
M  END
$$$$
