mol_bioactive_20
  PyMOL3.1          3D                             0

 73 79  0  0  0  0  0  0  0  0999 V2000
    1.0361    5.0875    3.8949 C   0  0  0  0  0  0  0  0  0  0  0  0
    1.2336    4.4248    5.1835 C   0  0  0  0  0  0  0  0  0  0  0  0
    1.9553    3.2128    5.1536 O   0  0  0  0  0  0  0  0  0  0  0  0
    3.1703    3.1038    4.4889 C   0  0  0  0  0  0  0  0  0  0  0  0
    0.0453    4.1211    5.9699 C   0  0  0  0  0  0  0  0  0  0  0  0
    0.2993    4.7895    7.0852 N   0  0  0  0  0  0  0  0  0  0  0  0
   -0.5715    4.9062    8.0520 C   0  0  0  0  0  0  0  0  0  0  0  0
   -1.8230    4.3575    7.9534 C   0  0  0  0  0  0  0  0  0  0  0  0
   -2.1570    3.6412    6.8005 C   0  0  0  0  0  0  0  0  0  0  0  0
   -1.2079    3.5131    5.7958 C   0  0  0  0  0  0  0  0  0  0  0  0
   -1.5729    2.7134    4.6414 C   0  0  0  0  0  0  0  0  0  0  0  0
   -2.3893    3.1584    3.6569 N   0  0  0  0  0  0  0  0  0  0  0  0
   -2.9812    4.5260    3.5147 C   0  0  0  0  0  0  0  0  0  0  0  0
   -4.4134    4.5765    3.7591 C   0  0  0  0  0  0  0  0  0  0  0  0
   -1.1552    1.3836    4.3602 C   0  0  0  0  0  0  0  0  0  0  0  0
   -0.1798    0.4851    5.0575 C   0  0  0  0  0  0  0  0  0  0  0  0
   -0.7427   -0.4046    6.2366 C   0  0  0  0  0  0  0  0  0  0  0  0
   -1.0650    0.4150    7.4640 C   0  0  0  0  0  0  0  0  0  0  0  0
    0.3642   -1.3169    6.6697 C   0  0  0  0  0  0  0  0  0  0  0  0
   -1.9711   -1.2271    5.8428 C   0  0  0  0  0  0  0  0  0  0  0  0
   -1.6519   -2.5793    5.2510 O   0  0  0  0  0  0  0  0  0  0  0  0
   -2.3657   -3.7838    5.5199 C   0  0  0  0  0  0  0  0  0  0  0  0
   -1.8828   -5.0959    4.9089 C   0  0  0  0  0  0  0  0  0  0  0  0
   -0.6266   -4.9035    4.2451 N   0  0  0  0  0  0  0  0  0  0  0  0
   -0.0132   -6.0077    3.6764 N   0  0  0  0  0  0  0  0  0  0  0  0
    0.3370   -6.0081    2.3521 C   0  0  0  0  0  0  0  0  0  0  0  0
    0.0337   -4.7969    1.5198 C   0  0  0  0  0  0  0  0  0  0  0  0
    1.0990   -4.4997    0.5745 N   0  0  0  0  0  0  0  0  0  0  0  0
    2.0935   -3.6393    0.8164 C   0  0  0  0  0  0  0  0  0  0  0  0
    2.9885   -3.3029   -0.3314 C   0  0  0  0  0  0  0  0  0  0  0  0
    4.3439   -4.0591   -0.3604 C   0  0  0  0  0  0  0  0  0  0  0  0
    4.9904   -4.0419   -1.6955 C   0  0  0  0  0  0  0  0  0  0  0  0
    4.3264   -5.4017    0.2841 C   0  0  0  0  0  0  0  0  0  0  0  0
    3.1608   -1.8484   -0.2883 N   0  0  0  0  0  0  0  0  0  0  0  0
    2.1713   -1.0606   -0.8247 C   0  0  0  0  0  0  0  0  0  0  0  0
    2.1517    0.4479   -0.8012 C   0  0  0  0  0  0  0  0  0  0  0  0
    1.1757    1.0360   -1.8234 C   0  0  0  0  0  0  0  0  0  0  0  0
    1.0738    2.5186   -1.6939 C   0  0  0  0  0  0  0  0  0  0  0  0
    0.7899    2.9000   -0.3049 N   0  0  0  0  0  0  0  0  0  0  0  0
   -0.2444    3.7210    0.0534 C   0  0  0  0  0  0  0  0  0  0  0  0
   -1.3025    4.0037   -0.7989 C   0  0  0  0  0  0  0  0  0  0  0  0
   -2.2253    4.3478   -1.4295 C   0  0  0  0  0  0  0  0  0  0  0  0
   -3.2964    4.6764   -2.2958 C   0  0  0  0  0  0  0  0  0  0  0  0
   -3.6062    6.0622   -2.1786 N   0  0  0  0  0  0  0  0  0  0  0  0
   -3.0677    6.9992   -3.0678 C   0  0  0  0  0  0  0  0  0  0  0  0
   -4.2259    6.5575   -1.0180 C   0  0  0  0  0  0  0  0  0  0  0  0
   -4.5191    3.8521   -1.9767 C   0  0  0  0  0  0  0  0  0  0  0  0
   -2.9072    4.3239   -3.7102 C   0  0  0  0  0  0  0  0  0  0  0  0
   -0.2790    4.1969    1.1945 O   0  0  0  0  0  0  0  0  0  0  0  0
    1.6466    2.3452    0.7059 C   0  0  0  0  0  0  0  0  0  0  0  0
    1.7083    0.8596    0.5922 C   0  0  0  0  0  0  0  0  0  0  0  0
    1.2091   -1.6469   -1.3426 O   0  0  0  0  0  0  0  0  0  0  0  0
    4.3180   -1.2918    0.4249 C   0  0  0  0  0  0  0  0  0  0  0  0
    2.1583   -3.0793    1.8957 O   0  0  0  0  0  0  0  0  0  0  0  0
   -1.3197   -5.0054    0.7484 C   0  0  0  0  0  0  0  0  0  0  0  0
   -2.2595   -3.8222    0.3727 C   0  0  0  0  0  0  0  0  0  0  0  0
   -1.8247   -2.5328    0.9458 C   0  0  0  0  0  0  0  0  0  0  0  0
   -2.5381   -1.3783    0.4757 N   0  0  0  0  0  0  0  0  0  0  0  0
   -3.3941   -1.5080   -0.6731 C   0  0  0  0  0  0  0  0  0  0  0  0
   -3.2175   -2.7163   -1.5139 C   0  0  0  0  0  0  0  0  0  0  0  0
   -2.3296   -3.7524   -1.0654 O   0  0  0  0  0  0  0  0  0  0  0  0
    0.8472   -7.0007    1.8159 O   0  0  0  0  0  0  0  0  0  0  0  0
    0.2569   -7.1190    4.5863 C   0  0  0  0  0  0  0  0  0  0  0  0
   -1.0171   -7.4515    5.3851 C   0  0  0  0  0  0  0  0  0  0  0  0
   -1.6990   -6.2158    5.9710 C   0  0  0  0  0  0  0  0  0  0  0  0
   -3.3781   -3.8350    6.2193 O   0  0  0  0  0  0  0  0  0  0  0  0
   -1.8115    1.0607    3.1640 C   0  0  0  0  0  0  0  0  0  0  0  0
   -2.5522    2.1668    2.7708 C   0  0  0  0  0  0  0  0  0  0  0  0
   -3.3078    2.0988    1.5571 C   0  0  0  0  0  0  0  0  0  0  0  0
   -3.2532    0.9185    0.8205 C   0  0  0  0  0  0  0  0  0  0  0  0
   -2.5173   -0.1914    1.2277 C   0  0  0  0  0  0  0  0  0  0  0  0
   -1.7570   -0.1198    2.4141 C   0  0  0  0  0  0  0  0  0  0  0  0
    3.3956    0.9587   -1.0912 F   0  0  0  0  0  0  0  0  0  0  0  0
  1  2  1  0  0  0  0
  2  3  1  0  0  0  0
  2  5  1  0  0  0  0
  3  4  1  0  0  0  0
  5  6  4  0  0  0  0
  5 10  4  0  0  0  0
  6  7  4  0  0  0  0
  7  8  4  0  0  0  0
  8  9  4  0  0  0  0
  9 10  4  0  0  0  0
 10 11  1  0  0  0  0
 11 12  4  0  0  0  0
 11 15  4  0  0  0  0
 12 13  1  0  0  0  0
 12 68  4  0  0  0  0
 13 14  1  0  0  0  0
 15 16  1  0  0  0  0
 15 67  4  0  0  0  0
 16 17  1  0  0  0  0
 17 18  1  0  0  0  0
 17 19  1  0  0  0  0
 17 20  1  0  0  0  0
 20 21  1  0  0  0  0
 21 22  1  0  0  0  0
 22 23  1  0  0  0  0
 22 66  2  0  0  0  0
 23 24  1  0  0  0  0
 23 65  1  0  0  0  0
 24 25  1  0  0  0  0
 25 26  1  0  0  0  0
 25 63  1  0  0  0  0
 26 27  1  0  0  0  0
 26 62  2  0  0  0  0
 27 28  1  0  0  0  0
 27 55  1  0  0  0  0
 28 29  1  0  0  0  0
 29 30  1  0  0  0  0
 29 54  2  0  0  0  0
 30 31  1  0  0  0  0
 30 34  1  0  0  0  0
 31 32  1  0  0  0  0
 31 33  1  0  0  0  0
 34 35  1  0  0  0  0
 34 53  1  0  0  0  0
 35 36  1  0  0  0  0
 35 52  2  0  0  0  0
 36 37  1  0  0  0  0
 36 51  1  0  0  0  0
 36 73  1  0  0  0  0
 37 38  1  0  0  0  0
 38 39  1  0  0  0  0
 39 40  1  0  0  0  0
 39 50  1  0  0  0  0
 40 41  1  0  0  0  0
 40 49  2  0  0  0  0
 41 42  1  0  0  0  0
 42 43  1  0  0  0  0
 43 44  1  0  0  0  0
 43 47  1  0  0  0  0
 43 48  1  0  0  0  0
 44 45  1  0  0  0  0
 44 46  1  0  0  0  0
 50 51  1  0  0  0  0
 55 56  1  0  0  0  0
 56 57  1  0  0  0  0
 56 61  1  0  0  0  0
 57 58  1  0  0  0  0
 58 59  1  0  0  0  0
 58 71  1  0  0  0  0
 59 60  1  0  0  0  0
 60 61  1  0  0  0  0
 63 64  1  0  0  0  0
 64 65  1  0  0  0  0
 67 68  4  0  0  0  0
 67 72  4  0  0  0  0
 68 69  4  0  0  0  0
 69 70  4  0  0  0  0
 70 71  4  0  0  0  0
 71 72  4  0  0  0  0
M  END
$$$$
