mol_ETKDG1_91
  PyMOL3.1          3D                             0

 73 79  0  0  0  0  0  0  0  0999 V2000
   -3.0872    3.1046    4.4032 C   0  0  0  0  0  0  0  0  0  0  0  0
   -2.0285    3.6843    3.5405 C   0  0  0  0  0  0  0  0  0  0  0  0
   -0.8813    4.1560    4.2412 O   0  0  0  0  0  0  0  0  0  0  0  0
    0.0174    3.1951    4.7447 C   0  0  0  0  0  0  0  0  0  0  0  0
   -2.5202    4.8264    2.7430 C   0  0  0  0  0  0  0  0  0  0  0  0
   -2.7568    5.9580    3.3926 N   0  0  0  0  0  0  0  0  0  0  0  0
   -3.2421    7.0448    2.7599 C   0  0  0  0  0  0  0  0  0  0  0  0
   -3.5246    7.0283    1.3882 C   0  0  0  0  0  0  0  0  0  0  0  0
   -3.2855    5.8447    0.6801 C   0  0  0  0  0  0  0  0  0  0  0  0
   -2.7637    4.7335    1.3660 C   0  0  0  0  0  0  0  0  0  0  0  0
   -2.5110    3.5282    0.5980 C   0  0  0  0  0  0  0  0  0  0  0  0
   -3.5068    2.7325    0.1228 N   0  0  0  0  0  0  0  0  0  0  0  0
   -4.9889    2.8648    0.3641 C   0  0  0  0  0  0  0  0  0  0  0  0
   -5.7477    3.2819   -0.8118 C   0  0  0  0  0  0  0  0  0  0  0  0
   -1.2334    2.9799    0.2640 C   0  0  0  0  0  0  0  0  0  0  0  0
    0.1757    3.3990    0.6249 C   0  0  0  0  0  0  0  0  0  0  0  0
    0.8242    4.5068   -0.3231 C   0  0  0  0  0  0  0  0  0  0  0  0
    2.2342    4.7734    0.1770 C   0  0  0  0  0  0  0  0  0  0  0  0
    0.1160    5.8135   -0.1874 C   0  0  0  0  0  0  0  0  0  0  0  0
    0.8698    4.0976   -1.8018 C   0  0  0  0  0  0  0  0  0  0  0  0
    2.0354    3.2364   -2.2413 O   0  0  0  0  0  0  0  0  0  0  0  0
    2.6932    3.3564   -3.5141 C   0  0  0  0  0  0  0  0  0  0  0  0
    3.8497    2.4049   -3.8417 C   0  0  0  0  0  0  0  0  0  0  0  0
    4.3436    1.8055   -2.6321 N   0  0  0  0  0  0  0  0  0  0  0  0
    5.4348    0.9328   -2.7146 N   0  0  0  0  0  0  0  0  0  0  0  0
    5.3624   -0.3468   -2.2041 C   0  0  0  0  0  0  0  0  0  0  0  0
    4.0520   -0.8110   -1.6266 C   0  0  0  0  0  0  0  0  0  0  0  0
    4.2090   -1.6233   -0.4333 N   0  0  0  0  0  0  0  0  0  0  0  0
    4.0272   -1.1573    0.8192 C   0  0  0  0  0  0  0  0  0  0  0  0
    4.0438   -2.1831    1.9088 C   0  0  0  0  0  0  0  0  0  0  0  0
    5.3878   -2.2016    2.7132 C   0  0  0  0  0  0  0  0  0  0  0  0
    5.4396   -3.2503    3.7749 C   0  0  0  0  0  0  0  0  0  0  0  0
    6.5928   -2.2403    1.8122 C   0  0  0  0  0  0  0  0  0  0  0  0
    2.8522   -1.9181    2.7506 N   0  0  0  0  0  0  0  0  0  0  0  0
    1.6286   -2.3944    2.3321 C   0  0  0  0  0  0  0  0  0  0  0  0
    0.3063   -2.1547    3.0425 C   0  0  0  0  0  0  0  0  0  0  0  0
   -0.1138   -0.7211    2.7826 C   0  0  0  0  0  0  0  0  0  0  0  0
   -1.4306   -0.3978    3.4570 C   0  0  0  0  0  0  0  0  0  0  0  0
   -2.4432   -1.3562    2.9668 N   0  0  0  0  0  0  0  0  0  0  0  0
   -3.6070   -0.9365    2.3515 C   0  0  0  0  0  0  0  0  0  0  0  0
   -4.2799   -1.7876    1.4792 C   0  0  0  0  0  0  0  0  0  0  0  0
   -4.9023   -2.4694    0.7591 C   0  0  0  0  0  0  0  0  0  0  0  0
   -5.5001   -3.4614   -0.0706 C   0  0  0  0  0  0  0  0  0  0  0  0
   -6.8276   -3.7371    0.3730 N   0  0  0  0  0  0  0  0  0  0  0  0
   -7.8859   -2.8778   -0.0008 C   0  0  0  0  0  0  0  0  0  0  0  0
   -7.0356   -4.5500    1.5259 C   0  0  0  0  0  0  0  0  0  0  0  0
   -5.5051   -3.0038   -1.5200 C   0  0  0  0  0  0  0  0  0  0  0  0
   -4.6567   -4.7321   -0.0403 C   0  0  0  0  0  0  0  0  0  0  0  0
   -4.0374    0.2027    2.5113 O   0  0  0  0  0  0  0  0  0  0  0  0
   -2.1177   -2.7486    3.1239 C   0  0  0  0  0  0  0  0  0  0  0  0
   -0.8056   -3.0846    2.5165 C   0  0  0  0  0  0  0  0  0  0  0  0
    1.6145   -3.0564    1.2790 O   0  0  0  0  0  0  0  0  0  0  0  0
    2.9864   -1.0476    3.9326 C   0  0  0  0  0  0  0  0  0  0  0  0
    3.7370    0.0124    1.0181 O   0  0  0  0  0  0  0  0  0  0  0  0
    3.2777   -1.6486   -2.7202 C   0  0  0  0  0  0  0  0  0  0  0  0
    1.8433   -2.0809   -2.3270 C   0  0  0  0  0  0  0  0  0  0  0  0
    0.9650   -0.8892   -2.4749 C   0  0  0  0  0  0  0  0  0  0  0  0
   -0.4221   -1.1970   -2.2457 N   0  0  0  0  0  0  0  0  0  0  0  0
   -0.9446   -2.3462   -3.0052 C   0  0  0  0  0  0  0  0  0  0  0  0
    0.0318   -3.5315   -2.9512 C   0  0  0  0  0  0  0  0  0  0  0  0
    1.4114   -3.1181   -3.2511 O   0  0  0  0  0  0  0  0  0  0  0  0
    6.3222   -1.1394   -2.2579 O   0  0  0  0  0  0  0  0  0  0  0  0
    6.6443    1.4977   -3.3170 C   0  0  0  0  0  0  0  0  0  0  0  0
    6.2704    2.1765   -4.6639 C   0  0  0  0  0  0  0  0  0  0  0  0
    5.0493    3.1120   -4.5472 C   0  0  0  0  0  0  0  0  0  0  0  0
    2.3730    4.1846   -4.3837 O   0  0  0  0  0  0  0  0  0  0  0  0
   -1.5496    1.8264   -0.4790 C   0  0  0  0  0  0  0  0  0  0  0  0
   -2.9417    1.7165   -0.5481 C   0  0  0  0  0  0  0  0  0  0  0  0
   -3.5243    0.6075   -1.2497 C   0  0  0  0  0  0  0  0  0  0  0  0
   -2.6491   -0.3374   -1.7931 C   0  0  0  0  0  0  0  0  0  0  0  0
   -1.2604   -0.2185   -1.6965 C   0  0  0  0  0  0  0  0  0  0  0  0
   -0.6939    0.8781   -1.0283 C   0  0  0  0  0  0  0  0  0  0  0  0
    0.4227   -2.4196    4.4014 F   0  0  0  0  0  0  0  0  0  0  0  0
  1  2  1  0  0  0  0
  2  3  1  0  0  0  0
  2  5  1  0  0  0  0
  3  4  1  0  0  0  0
  5  6  4  0  0  0  0
  5 10  4  0  0  0  0
  6  7  4  0  0  0  0
  7  8  4  0  0  0  0
  8  9  4  0  0  0  0
  9 10  4  0  0  0  0
 10 11  1  0  0  0  0
 11 12  4  0  0  0  0
 11 15  4  0  0  0  0
 12 13  1  0  0  0  0
 12 68  4  0  0  0  0
 13 14  1  0  0  0  0
 15 16  1  0  0  0  0
 15 67  4  0  0  0  0
 16 17  1  0  0  0  0
 17 18  1  0  0  0  0
 17 19  1  0  0  0  0
 17 20  1  0  0  0  0
 20 21  1  0  0  0  0
 21 22  1  0  0  0  0
 22 23  1  0  0  0  0
 22 66  2  0  0  0  0
 23 24  1  0  0  0  0
 23 65  1  0  0  0  0
 24 25  1  0  0  0  0
 25 26  1  0  0  0  0
 25 63  1  0  0  0  0
 26 27  1  0  0  0  0
 26 62  2  0  0  0  0
 27 28  1  0  0  0  0
 27 55  1  0  0  0  0
 28 29  1  0  0  0  0
 29 30  1  0  0  0  0
 29 54  2  0  0  0  0
 30 31  1  0  0  0  0
 30 34  1  0  0  0  0
 31 32  1  0  0  0  0
 31 33  1  0  0  0  0
 34 35  1  0  0  0  0
 34 53  1  0  0  0  0
 35 36  1  0  0  0  0
 35 52  2  0  0  0  0
 36 37  1  0  0  0  0
 36 51  1  0  0  0  0
 36 73  1  0  0  0  0
 37 38  1  0  0  0  0
 38 39  1  0  0  0  0
 39 40  1  0  0  0  0
 39 50  1  0  0  0  0
 40 41  1  0  0  0  0
 40 49  2  0  0  0  0
 41 42  1  0  0  0  0
 42 43  1  0  0  0  0
 43 44  1  0  0  0  0
 43 47  1  0  0  0  0
 43 48  1  0  0  0  0
 44 45  1  0  0  0  0
 44 46  1  0  0  0  0
 50 51  1  0  0  0  0
 55 56  1  0  0  0  0
 56 57  1  0  0  0  0
 56 61  1  0  0  0  0
 57 58  1  0  0  0  0
 58 59  1  0  0  0  0
 58 71  1  0  0  0  0
 59 60  1  0  0  0  0
 60 61  1  0  0  0  0
 63 64  1  0  0  0  0
 64 65  1  0  0  0  0
 67 68  4  0  0  0  0
 67 72  4  0  0  0  0
 68 69  4  0  0  0  0
 69 70  4  0  0  0  0
 70 71  4  0  0  0  0
 71 72  4  0  0  0  0
M  END
$$$$
