mol_ETKDG1_73
  PyMOL3.1          3D                             0

 73 79  0  0  0  0  0  0  0  0999 V2000
    3.8579    1.2033   -2.9065 C   0  0  0  0  0  0  0  0  0  0  0  0
    3.2750    1.6792   -1.6391 C   0  0  0  0  0  0  0  0  0  0  0  0
    3.9029    1.1950   -0.4631 O   0  0  0  0  0  0  0  0  0  0  0  0
    3.6591   -0.1467   -0.1135 C   0  0  0  0  0  0  0  0  0  0  0  0
    3.2507    3.1478   -1.5489 C   0  0  0  0  0  0  0  0  0  0  0  0
    4.3310    3.7577   -1.0960 N   0  0  0  0  0  0  0  0  0  0  0  0
    4.3918    5.1035   -1.0046 C   0  0  0  0  0  0  0  0  0  0  0  0
    3.3166    5.9085   -1.3958 C   0  0  0  0  0  0  0  0  0  0  0  0
    2.1717    5.2818   -1.8899 C   0  0  0  0  0  0  0  0  0  0  0  0
    2.1398    3.8826   -1.9555 C   0  0  0  0  0  0  0  0  0  0  0  0
    0.9445    3.2503   -2.4549 C   0  0  0  0  0  0  0  0  0  0  0  0
    0.6409    3.1884   -3.7775 N   0  0  0  0  0  0  0  0  0  0  0  0
    1.4680    3.6627   -4.9377 C   0  0  0  0  0  0  0  0  0  0  0  0
    0.9761    4.8979   -5.5503 C   0  0  0  0  0  0  0  0  0  0  0  0
   -0.0325    2.5658   -1.6732 C   0  0  0  0  0  0  0  0  0  0  0  0
   -0.0854    2.2360   -0.1961 C   0  0  0  0  0  0  0  0  0  0  0  0
   -0.7646    3.3045    0.7681 C   0  0  0  0  0  0  0  0  0  0  0  0
   -0.0752    4.6501    0.7089 C   0  0  0  0  0  0  0  0  0  0  0  0
   -0.5802    2.8250    2.1913 C   0  0  0  0  0  0  0  0  0  0  0  0
   -2.2573    3.4973    0.4744 C   0  0  0  0  0  0  0  0  0  0  0  0
   -3.1644    2.4151    1.0214 O   0  0  0  0  0  0  0  0  0  0  0  0
   -4.3599    2.6487    1.7752 C   0  0  0  0  0  0  0  0  0  0  0  0
   -5.2076    1.4534    2.2128 C   0  0  0  0  0  0  0  0  0  0  0  0
   -4.3991    0.2727    2.2301 N   0  0  0  0  0  0  0  0  0  0  0  0
   -4.9966   -0.9200    2.6512 N   0  0  0  0  0  0  0  0  0  0  0  0
   -4.9849   -2.0356    1.8636 C   0  0  0  0  0  0  0  0  0  0  0  0
   -4.3425   -1.9450    0.5135 C   0  0  0  0  0  0  0  0  0  0  0  0
   -3.5105   -3.1039    0.2299 N   0  0  0  0  0  0  0  0  0  0  0  0
   -2.1658   -3.0984    0.3738 C   0  0  0  0  0  0  0  0  0  0  0  0
   -1.4556   -4.3366   -0.0728 C   0  0  0  0  0  0  0  0  0  0  0  0
   -0.9402   -5.2247    1.1127 C   0  0  0  0  0  0  0  0  0  0  0  0
   -0.3740   -6.5270    0.6422 C   0  0  0  0  0  0  0  0  0  0  0  0
   -1.9971   -5.4212    2.1661 C   0  0  0  0  0  0  0  0  0  0  0  0
   -0.3829   -3.9196   -0.9906 N   0  0  0  0  0  0  0  0  0  0  0  0
   -0.6813   -3.7959   -2.3311 C   0  0  0  0  0  0  0  0  0  0  0  0
    0.2790   -3.2997   -3.3976 C   0  0  0  0  0  0  0  0  0  0  0  0
    0.3147   -1.7884   -3.2996 C   0  0  0  0  0  0  0  0  0  0  0  0
    1.2430   -1.2004   -4.3291 C   0  0  0  0  0  0  0  0  0  0  0  0
    0.7726   -1.6072   -5.6521 N   0  0  0  0  0  0  0  0  0  0  0  0
    0.4709   -0.6420   -6.5872 C   0  0  0  0  0  0  0  0  0  0  0  0
   -0.6072   -0.7193   -7.4721 C   0  0  0  0  0  0  0  0  0  0  0  0
   -1.4525   -0.6415   -8.2804 C   0  0  0  0  0  0  0  0  0  0  0  0
   -2.5155   -0.6744   -9.2224 C   0  0  0  0  0  0  0  0  0  0  0  0
   -2.0566   -0.1729  -10.4841 N   0  0  0  0  0  0  0  0  0  0  0  0
   -2.1017    1.2101  -10.7635 C   0  0  0  0  0  0  0  0  0  0  0  0
   -1.1589   -0.9490  -11.2622 C   0  0  0  0  0  0  0  0  0  0  0  0
   -3.0194   -2.0891   -9.3772 C   0  0  0  0  0  0  0  0  0  0  0  0
   -3.6830    0.1505   -8.7185 C   0  0  0  0  0  0  0  0  0  0  0  0
    1.1299    0.3891   -6.6088 O   0  0  0  0  0  0  0  0  0  0  0  0
    0.6471   -3.0301   -5.8703 C   0  0  0  0  0  0  0  0  0  0  0  0
   -0.1781   -3.6865   -4.8183 C   0  0  0  0  0  0  0  0  0  0  0  0
   -1.8417   -4.0838   -2.6833 O   0  0  0  0  0  0  0  0  0  0  0  0
    0.9227   -3.5254   -0.4327 C   0  0  0  0  0  0  0  0  0  0  0  0
   -1.5868   -2.0927    0.7372 O   0  0  0  0  0  0  0  0  0  0  0  0
   -5.4507   -1.7818   -0.5958 C   0  0  0  0  0  0  0  0  0  0  0  0
   -4.9017   -1.5510   -2.0254 C   0  0  0  0  0  0  0  0  0  0  0  0
   -4.3981   -0.1530   -2.0976 C   0  0  0  0  0  0  0  0  0  0  0  0
   -3.9401    0.1827   -3.4217 N   0  0  0  0  0  0  0  0  0  0  0  0
   -4.8924   -0.0752   -4.4999 C   0  0  0  0  0  0  0  0  0  0  0  0
   -5.5341   -1.4595   -4.3390 C   0  0  0  0  0  0  0  0  0  0  0  0
   -6.0090   -1.6921   -2.9625 O   0  0  0  0  0  0  0  0  0  0  0  0
   -5.5212   -3.1022    2.2153 O   0  0  0  0  0  0  0  0  0  0  0  0
   -5.5612   -0.8995    3.9967 C   0  0  0  0  0  0  0  0  0  0  0  0
   -6.4889    0.3294    4.1258 C   0  0  0  0  0  0  0  0  0  0  0  0
   -5.8175    1.6247    3.6414 C   0  0  0  0  0  0  0  0  0  0  0  0
   -4.7531    3.7810    2.0942 O   0  0  0  0  0  0  0  0  0  0  0  0
   -0.9596    2.1351   -2.6359 C   0  0  0  0  0  0  0  0  0  0  0  0
   -0.5170    2.5374   -3.8988 C   0  0  0  0  0  0  0  0  0  0  0  0
   -1.2850    2.1968   -5.0530 C   0  0  0  0  0  0  0  0  0  0  0  0
   -2.4183    1.4133   -4.8518 C   0  0  0  0  0  0  0  0  0  0  0  0
   -2.8245    0.9976   -3.5835 C   0  0  0  0  0  0  0  0  0  0  0  0
   -2.0997    1.3775   -2.4487 C   0  0  0  0  0  0  0  0  0  0  0  0
    1.5366   -3.8534   -3.2336 F   0  0  0  0  0  0  0  0  0  0  0  0
  1  2  1  0  0  0  0
  2  3  1  0  0  0  0
  2  5  1  0  0  0  0
  3  4  1  0  0  0  0
  5  6  4  0  0  0  0
  5 10  4  0  0  0  0
  6  7  4  0  0  0  0
  7  8  4  0  0  0  0
  8  9  4  0  0  0  0
  9 10  4  0  0  0  0
 10 11  1  0  0  0  0
 11 12  4  0  0  0  0
 11 15  4  0  0  0  0
 12 13  1  0  0  0  0
 12 68  4  0  0  0  0
 13 14  1  0  0  0  0
 15 16  1  0  0  0  0
 15 67  4  0  0  0  0
 16 17  1  0  0  0  0
 17 18  1  0  0  0  0
 17 19  1  0  0  0  0
 17 20  1  0  0  0  0
 20 21  1  0  0  0  0
 21 22  1  0  0  0  0
 22 23  1  0  0  0  0
 22 66  2  0  0  0  0
 23 24  1  0  0  0  0
 23 65  1  0  0  0  0
 24 25  1  0  0  0  0
 25 26  1  0  0  0  0
 25 63  1  0  0  0  0
 26 27  1  0  0  0  0
 26 62  2  0  0  0  0
 27 28  1  0  0  0  0
 27 55  1  0  0  0  0
 28 29  1  0  0  0  0
 29 30  1  0  0  0  0
 29 54  2  0  0  0  0
 30 31  1  0  0  0  0
 30 34  1  0  0  0  0
 31 32  1  0  0  0  0
 31 33  1  0  0  0  0
 34 35  1  0  0  0  0
 34 53  1  0  0  0  0
 35 36  1  0  0  0  0
 35 52  2  0  0  0  0
 36 37  1  0  0  0  0
 36 51  1  0  0  0  0
 36 73  1  0  0  0  0
 37 38  1  0  0  0  0
 38 39  1  0  0  0  0
 39 40  1  0  0  0  0
 39 50  1  0  0  0  0
 40 41  1  0  0  0  0
 40 49  2  0  0  0  0
 41 42  1  0  0  0  0
 42 43  1  0  0  0  0
 43 44  1  0  0  0  0
 43 47  1  0  0  0  0
 43 48  1  0  0  0  0
 44 45  1  0  0  0  0
 44 46  1  0  0  0  0
 50 51  1  0  0  0  0
 55 56  1  0  0  0  0
 56 57  1  0  0  0  0
 56 61  1  0  0  0  0
 57 58  1  0  0  0  0
 58 59  1  0  0  0  0
 58 71  1  0  0  0  0
 59 60  1  0  0  0  0
 60 61  1  0  0  0  0
 63 64  1  0  0  0  0
 64 65  1  0  0  0  0
 67 68  4  0  0  0  0
 67 72  4  0  0  0  0
 68 69  4  0  0  0  0
 69 70  4  0  0  0  0
 70 71  4  0  0  0  0
 71 72  4  0  0  0  0
M  END
$$$$
