mol_ETKDG5_270
  PyMOL3.1          3D                             0

 73 79  0  0  0  0  0  0  0  0999 V2000
    5.0578    4.6069    0.6662 C   0  0  0  0  0  0  0  0  0  0  0  0
    4.5013    3.5118    1.4821 C   0  0  0  0  0  0  0  0  0  0  0  0
    5.4088    2.5512    1.9046 O   0  0  0  0  0  0  0  0  0  0  0  0
    5.9994    1.7470    0.9101 C   0  0  0  0  0  0  0  0  0  0  0  0
    3.7963    4.0005    2.6769 C   0  0  0  0  0  0  0  0  0  0  0  0
    4.4534    4.7959    3.5059 N   0  0  0  0  0  0  0  0  0  0  0  0
    3.8480    5.3366    4.5819 C   0  0  0  0  0  0  0  0  0  0  0  0
    2.5062    5.0904    4.8668 C   0  0  0  0  0  0  0  0  0  0  0  0
    1.7989    4.2530    4.0032 C   0  0  0  0  0  0  0  0  0  0  0  0
    2.4725    3.6869    2.9193 C   0  0  0  0  0  0  0  0  0  0  0  0
    1.7390    2.7783    2.0820 C   0  0  0  0  0  0  0  0  0  0  0  0
    0.9523    3.1833    1.0646 N   0  0  0  0  0  0  0  0  0  0  0  0
    0.7502    4.5790    0.5631 C   0  0  0  0  0  0  0  0  0  0  0  0
   -0.5519    5.1370    0.9214 C   0  0  0  0  0  0  0  0  0  0  0  0
    1.7644    1.3658    2.1634 C   0  0  0  0  0  0  0  0  0  0  0  0
    2.6100    0.4371    2.9752 C   0  0  0  0  0  0  0  0  0  0  0  0
    2.0575    0.0037    4.3854 C   0  0  0  0  0  0  0  0  0  0  0  0
    2.1307    1.1243    5.4016 C   0  0  0  0  0  0  0  0  0  0  0  0
    2.9862   -1.0457    4.9079 C   0  0  0  0  0  0  0  0  0  0  0  0
    0.6429   -0.5188    4.3042 C   0  0  0  0  0  0  0  0  0  0  0  0
    0.5586   -2.0071    4.0446 O   0  0  0  0  0  0  0  0  0  0  0  0
   -0.1913   -2.9205    4.8325 C   0  0  0  0  0  0  0  0  0  0  0  0
   -0.1646   -4.3936    4.4704 C   0  0  0  0  0  0  0  0  0  0  0  0
    1.0099   -4.6875    3.6930 N   0  0  0  0  0  0  0  0  0  0  0  0
    1.2094   -6.0162    3.3330 N   0  0  0  0  0  0  0  0  0  0  0  0
    1.3594   -6.3878    2.0308 C   0  0  0  0  0  0  0  0  0  0  0  0
    1.2983   -5.3252    0.9833 C   0  0  0  0  0  0  0  0  0  0  0  0
    2.2149   -5.5673   -0.1088 N   0  0  0  0  0  0  0  0  0  0  0  0
    3.3433   -4.8795   -0.2665 C   0  0  0  0  0  0  0  0  0  0  0  0
    4.0979   -5.0983   -1.5286 C   0  0  0  0  0  0  0  0  0  0  0  0
    5.2682   -6.1061   -1.4734 C   0  0  0  0  0  0  0  0  0  0  0  0
    5.2746   -7.0275   -0.3412 C   0  0  0  0  0  0  0  0  0  0  0  0
    5.5107   -6.7537   -2.8053 C   0  0  0  0  0  0  0  0  0  0  0  0
    4.5353   -3.7805   -1.9615 N   0  0  0  0  0  0  0  0  0  0  0  0
    3.6459   -3.0054   -2.6618 C   0  0  0  0  0  0  0  0  0  0  0  0
    3.8951   -1.5874   -3.0775 C   0  0  0  0  0  0  0  0  0  0  0  0
    2.9785   -1.1003   -4.1920 C   0  0  0  0  0  0  0  0  0  0  0  0
    3.1861    0.3420   -4.4618 C   0  0  0  0  0  0  0  0  0  0  0  0
    3.1785    1.1421   -3.2256 N   0  0  0  0  0  0  0  0  0  0  0  0
    2.5273    2.3220   -3.0821 C   0  0  0  0  0  0  0  0  0  0  0  0
    1.7477    2.8453   -4.0795 C   0  0  0  0  0  0  0  0  0  0  0  0
    1.0989    3.4328   -4.8272 C   0  0  0  0  0  0  0  0  0  0  0  0
    0.2844    4.0191   -5.7945 C   0  0  0  0  0  0  0  0  0  0  0  0
   -0.5918    4.9747   -5.2112 N   0  0  0  0  0  0  0  0  0  0  0  0
   -1.8170    5.2887   -5.7814 C   0  0  0  0  0  0  0  0  0  0  0  0
   -0.1429    5.7899   -4.1629 C   0  0  0  0  0  0  0  0  0  0  0  0
    1.1637    4.7006   -6.8440 C   0  0  0  0  0  0  0  0  0  0  0  0
   -0.5010    2.9424   -6.4945 C   0  0  0  0  0  0  0  0  0  0  0  0
    2.6429    2.9608   -2.0193 O   0  0  0  0  0  0  0  0  0  0  0  0
    3.9186    0.6541   -2.1174 C   0  0  0  0  0  0  0  0  0  0  0  0
    3.6522   -0.7446   -1.8431 C   0  0  0  0  0  0  0  0  0  0  0  0
    2.5396   -3.5008   -2.9356 O   0  0  0  0  0  0  0  0  0  0  0  0
    5.8547   -3.2947   -1.5152 C   0  0  0  0  0  0  0  0  0  0  0  0
    3.6539   -4.0256    0.5454 O   0  0  0  0  0  0  0  0  0  0  0  0
   -0.1632   -5.2499    0.4042 C   0  0  0  0  0  0  0  0  0  0  0  0
   -0.3944   -4.1022   -0.6016 C   0  0  0  0  0  0  0  0  0  0  0  0
   -0.4845   -2.8480    0.1881 C   0  0  0  0  0  0  0  0  0  0  0  0
   -0.8117   -1.7271   -0.6469 N   0  0  0  0  0  0  0  0  0  0  0  0
   -2.0004   -1.9187   -1.4863 C   0  0  0  0  0  0  0  0  0  0  0  0
   -1.9531   -3.2733   -2.1947 C   0  0  0  0  0  0  0  0  0  0  0  0
   -1.6577   -4.3573   -1.2581 O   0  0  0  0  0  0  0  0  0  0  0  0
    1.4932   -7.5724    1.6964 O   0  0  0  0  0  0  0  0  0  0  0  0
    1.3111   -6.9578    4.4406 C   0  0  0  0  0  0  0  0  0  0  0  0
    0.0866   -6.7654    5.3595 C   0  0  0  0  0  0  0  0  0  0  0  0
   -0.1319   -5.3037    5.7330 C   0  0  0  0  0  0  0  0  0  0  0  0
   -0.8877   -2.5953    5.8160 O   0  0  0  0  0  0  0  0  0  0  0  0
    0.8681    0.9641    1.1686 C   0  0  0  0  0  0  0  0  0  0  0  0
    0.4073    2.0952    0.5137 C   0  0  0  0  0  0  0  0  0  0  0  0
   -0.4798    1.9533   -0.5968 C   0  0  0  0  0  0  0  0  0  0  0  0
   -0.8472    0.6642   -0.9516 C   0  0  0  0  0  0  0  0  0  0  0  0
   -0.3969   -0.4557   -0.2606 C   0  0  0  0  0  0  0  0  0  0  0  0
    0.4982   -0.3187    0.8023 C   0  0  0  0  0  0  0  0  0  0  0  0
    5.1785   -1.4269   -3.5409 F   0  0  0  0  0  0  0  0  0  0  0  0
  1  2  1  0  0  0  0
  2  3  1  0  0  0  0
  2  5  1  0  0  0  0
  3  4  1  0  0  0  0
  5  6  4  0  0  0  0
  5 10  4  0  0  0  0
  6  7  4  0  0  0  0
  7  8  4  0  0  0  0
  8  9  4  0  0  0  0
  9 10  4  0  0  0  0
 10 11  1  0  0  0  0
 11 12  4  0  0  0  0
 11 15  4  0  0  0  0
 12 13  1  0  0  0  0
 12 68  4  0  0  0  0
 13 14  1  0  0  0  0
 15 16  1  0  0  0  0
 15 67  4  0  0  0  0
 16 17  1  0  0  0  0
 17 18  1  0  0  0  0
 17 19  1  0  0  0  0
 17 20  1  0  0  0  0
 20 21  1  0  0  0  0
 21 22  1  0  0  0  0
 22 23  1  0  0  0  0
 22 66  2  0  0  0  0
 23 24  1  0  0  0  0
 23 65  1  0  0  0  0
 24 25  1  0  0  0  0
 25 26  1  0  0  0  0
 25 63  1  0  0  0  0
 26 27  1  0  0  0  0
 26 62  2  0  0  0  0
 27 28  1  0  0  0  0
 27 55  1  0  0  0  0
 28 29  1  0  0  0  0
 29 30  1  0  0  0  0
 29 54  2  0  0  0  0
 30 31  1  0  0  0  0
 30 34  1  0  0  0  0
 31 32  1  0  0  0  0
 31 33  1  0  0  0  0
 34 35  1  0  0  0  0
 34 53  1  0  0  0  0
 35 36  1  0  0  0  0
 35 52  2  0  0  0  0
 36 37  1  0  0  0  0
 36 51  1  0  0  0  0
 36 73  1  0  0  0  0
 37 38  1  0  0  0  0
 38 39  1  0  0  0  0
 39 40  1  0  0  0  0
 39 50  1  0  0  0  0
 40 41  1  0  0  0  0
 40 49  2  0  0  0  0
 41 42  1  0  0  0  0
 42 43  1  0  0  0  0
 43 44  1  0  0  0  0
 43 47  1  0  0  0  0
 43 48  1  0  0  0  0
 44 45  1  0  0  0  0
 44 46  1  0  0  0  0
 50 51  1  0  0  0  0
 55 56  1  0  0  0  0
 56 57  1  0  0  0  0
 56 61  1  0  0  0  0
 57 58  1  0  0  0  0
 58 59  1  0  0  0  0
 58 71  1  0  0  0  0
 59 60  1  0  0  0  0
 60 61  1  0  0  0  0
 63 64  1  0  0  0  0
 64 65  1  0  0  0  0
 67 68  4  0  0  0  0
 67 72  4  0  0  0  0
 68 69  4  0  0  0  0
 69 70  4  0  0  0  0
 70 71  4  0  0  0  0
 71 72  4  0  0  0  0
M  END
$$$$
