mol_ETKDG5_265
  PyMOL3.1          3D                             0

 73 79  0  0  0  0  0  0  0  0999 V2000
   -7.5052   -2.3431   -2.7811 C   0  0  0  0  0  0  0  0  0  0  0  0
   -7.1849   -1.9226   -4.1356 C   0  0  0  0  0  0  0  0  0  0  0  0
   -8.2972   -2.0501   -5.0450 O   0  0  0  0  0  0  0  0  0  0  0  0
   -8.7013   -3.3478   -5.4180 C   0  0  0  0  0  0  0  0  0  0  0  0
   -6.6101   -0.5359   -4.2419 C   0  0  0  0  0  0  0  0  0  0  0  0
   -7.4470    0.4503   -4.5147 N   0  0  0  0  0  0  0  0  0  0  0  0
   -7.0117    1.7194   -4.6942 C   0  0  0  0  0  0  0  0  0  0  0  0
   -5.6631    2.0594   -4.5664 C   0  0  0  0  0  0  0  0  0  0  0  0
   -4.7597    1.0403   -4.2491 C   0  0  0  0  0  0  0  0  0  0  0  0
   -5.2422   -0.2608   -4.0644 C   0  0  0  0  0  0  0  0  0  0  0  0
   -4.3110   -1.3007   -3.7043 C   0  0  0  0  0  0  0  0  0  0  0  0
   -3.9301   -2.2715   -4.5721 N   0  0  0  0  0  0  0  0  0  0  0  0
   -4.3163   -2.4273   -6.0304 C   0  0  0  0  0  0  0  0  0  0  0  0
   -3.2859   -1.8809   -6.9565 C   0  0  0  0  0  0  0  0  0  0  0  0
   -3.6738   -1.4825   -2.4317 C   0  0  0  0  0  0  0  0  0  0  0  0
   -3.6043   -0.6673   -1.1768 C   0  0  0  0  0  0  0  0  0  0  0  0
   -4.8039   -0.6834   -0.1665 C   0  0  0  0  0  0  0  0  0  0  0  0
   -4.3569    0.0050    1.1079 C   0  0  0  0  0  0  0  0  0  0  0  0
   -5.9237    0.1663   -0.6881 C   0  0  0  0  0  0  0  0  0  0  0  0
   -5.3102   -2.0601    0.1830 C   0  0  0  0  0  0  0  0  0  0  0  0
   -4.6767   -2.8027    1.3388 O   0  0  0  0  0  0  0  0  0  0  0  0
   -5.3026   -3.9093    2.0101 C   0  0  0  0  0  0  0  0  0  0  0  0
   -4.5638   -4.6042    3.1435 C   0  0  0  0  0  0  0  0  0  0  0  0
   -3.4434   -3.8142    3.5701 N   0  0  0  0  0  0  0  0  0  0  0  0
   -2.6883   -4.2659    4.6533 N   0  0  0  0  0  0  0  0  0  0  0  0
   -1.3272   -4.4338    4.5490 C   0  0  0  0  0  0  0  0  0  0  0  0
   -0.6759   -4.2032    3.2167 C   0  0  0  0  0  0  0  0  0  0  0  0
    0.6237   -3.5727    3.3458 N   0  0  0  0  0  0  0  0  0  0  0  0
    0.8654   -2.2936    3.0252 C   0  0  0  0  0  0  0  0  0  0  0  0
    2.2989   -1.8601    3.0460 C   0  0  0  0  0  0  0  0  0  0  0  0
    2.6755   -1.0031    4.3014 C   0  0  0  0  0  0  0  0  0  0  0  0
    4.1442   -0.7898    4.4556 C   0  0  0  0  0  0  0  0  0  0  0  0
    2.0081   -1.4599    5.5597 C   0  0  0  0  0  0  0  0  0  0  0  0
    2.4950   -1.1374    1.7840 N   0  0  0  0  0  0  0  0  0  0  0  0
    2.7072   -1.8684    0.6298 C   0  0  0  0  0  0  0  0  0  0  0  0
    2.7040   -1.2646   -0.7419 C   0  0  0  0  0  0  0  0  0  0  0  0
    1.2515   -0.9539   -1.0191 C   0  0  0  0  0  0  0  0  0  0  0  0
    1.0323   -0.3326   -2.2860 C   0  0  0  0  0  0  0  0  0  0  0  0
    1.7098   -0.9897   -3.3797 N   0  0  0  0  0  0  0  0  0  0  0  0
    1.0942   -1.0208   -4.5848 C   0  0  0  0  0  0  0  0  0  0  0  0
    1.8365   -1.3185   -5.6886 C   0  0  0  0  0  0  0  0  0  0  0  0
    2.3846   -1.4528   -6.6825 C   0  0  0  0  0  0  0  0  0  0  0  0
    3.2007   -1.6557   -7.8090 C   0  0  0  0  0  0  0  0  0  0  0  0
    2.5127   -1.1702   -8.9798 N   0  0  0  0  0  0  0  0  0  0  0  0
    1.5201   -1.9806   -9.5791 C   0  0  0  0  0  0  0  0  0  0  0  0
    2.3971    0.2360   -9.1886 C   0  0  0  0  0  0  0  0  0  0  0  0
    3.5406   -3.1338   -7.9328 C   0  0  0  0  0  0  0  0  0  0  0  0
    4.5158   -0.9171   -7.6346 C   0  0  0  0  0  0  0  0  0  0  0  0
   -0.1096   -0.7513   -4.7171 O   0  0  0  0  0  0  0  0  0  0  0  0
    3.0297   -1.5337   -3.1595 C   0  0  0  0  0  0  0  0  0  0  0  0
    3.2333   -2.1701   -1.8623 C   0  0  0  0  0  0  0  0  0  0  0  0
    2.8435   -3.1051    0.7350 O   0  0  0  0  0  0  0  0  0  0  0  0
    2.3145    0.3260    1.7679 C   0  0  0  0  0  0  0  0  0  0  0  0
   -0.0412   -1.5837    2.6191 O   0  0  0  0  0  0  0  0  0  0  0  0
   -0.4801   -5.5914    2.4876 C   0  0  0  0  0  0  0  0  0  0  0  0
    0.1134   -5.4868    1.0586 C   0  0  0  0  0  0  0  0  0  0  0  0
   -1.0210   -5.2036    0.1433 C   0  0  0  0  0  0  0  0  0  0  0  0
   -0.5970   -5.1563   -1.2309 N   0  0  0  0  0  0  0  0  0  0  0  0
    0.1655   -6.3530   -1.6729 C   0  0  0  0  0  0  0  0  0  0  0  0
    1.2627   -6.7030   -0.6617 C   0  0  0  0  0  0  0  0  0  0  0  0
    0.7243   -6.7582    0.7126 O   0  0  0  0  0  0  0  0  0  0  0  0
   -0.6395   -4.8302    5.5045 O   0  0  0  0  0  0  0  0  0  0  0  0
   -3.4341   -4.4904    5.8926 C   0  0  0  0  0  0  0  0  0  0  0  0
   -4.6678   -5.3725    5.5847 C   0  0  0  0  0  0  0  0  0  0  0  0
   -5.4696   -4.8615    4.3854 C   0  0  0  0  0  0  0  0  0  0  0  0
   -6.4396   -4.3454    1.7381 O   0  0  0  0  0  0  0  0  0  0  0  0
   -2.9180   -2.6457   -2.6105 C   0  0  0  0  0  0  0  0  0  0  0  0
   -3.0738   -3.0717   -3.9334 C   0  0  0  0  0  0  0  0  0  0  0  0
   -2.3433   -4.2165   -4.3878 C   0  0  0  0  0  0  0  0  0  0  0  0
   -1.5231   -4.8733   -3.4571 C   0  0  0  0  0  0  0  0  0  0  0  0
   -1.4050   -4.4517   -2.1327 C   0  0  0  0  0  0  0  0  0  0  0  0
   -2.0988   -3.3062   -1.6900 C   0  0  0  0  0  0  0  0  0  0  0  0
    3.5161   -0.1443   -0.7966 F   0  0  0  0  0  0  0  0  0  0  0  0
  1  2  1  0  0  0  0
  2  3  1  0  0  0  0
  2  5  1  0  0  0  0
  3  4  1  0  0  0  0
  5  6  4  0  0  0  0
  5 10  4  0  0  0  0
  6  7  4  0  0  0  0
  7  8  4  0  0  0  0
  8  9  4  0  0  0  0
  9 10  4  0  0  0  0
 10 11  1  0  0  0  0
 11 12  4  0  0  0  0
 11 15  4  0  0  0  0
 12 13  1  0  0  0  0
 12 68  4  0  0  0  0
 13 14  1  0  0  0  0
 15 16  1  0  0  0  0
 15 67  4  0  0  0  0
 16 17  1  0  0  0  0
 17 18  1  0  0  0  0
 17 19  1  0  0  0  0
 17 20  1  0  0  0  0
 20 21  1  0  0  0  0
 21 22  1  0  0  0  0
 22 23  1  0  0  0  0
 22 66  2  0  0  0  0
 23 24  1  0  0  0  0
 23 65  1  0  0  0  0
 24 25  1  0  0  0  0
 25 26  1  0  0  0  0
 25 63  1  0  0  0  0
 26 27  1  0  0  0  0
 26 62  2  0  0  0  0
 27 28  1  0  0  0  0
 27 55  1  0  0  0  0
 28 29  1  0  0  0  0
 29 30  1  0  0  0  0
 29 54  2  0  0  0  0
 30 31  1  0  0  0  0
 30 34  1  0  0  0  0
 31 32  1  0  0  0  0
 31 33  1  0  0  0  0
 34 35  1  0  0  0  0
 34 53  1  0  0  0  0
 35 36  1  0  0  0  0
 35 52  2  0  0  0  0
 36 37  1  0  0  0  0
 36 51  1  0  0  0  0
 36 73  1  0  0  0  0
 37 38  1  0  0  0  0
 38 39  1  0  0  0  0
 39 40  1  0  0  0  0
 39 50  1  0  0  0  0
 40 41  1  0  0  0  0
 40 49  2  0  0  0  0
 41 42  1  0  0  0  0
 42 43  1  0  0  0  0
 43 44  1  0  0  0  0
 43 47  1  0  0  0  0
 43 48  1  0  0  0  0
 44 45  1  0  0  0  0
 44 46  1  0  0  0  0
 50 51  1  0  0  0  0
 55 56  1  0  0  0  0
 56 57  1  0  0  0  0
 56 61  1  0  0  0  0
 57 58  1  0  0  0  0
 58 59  1  0  0  0  0
 58 71  1  0  0  0  0
 59 60  1  0  0  0  0
 60 61  1  0  0  0  0
 63 64  1  0  0  0  0
 64 65  1  0  0  0  0
 67 68  4  0  0  0  0
 67 72  4  0  0  0  0
 68 69  4  0  0  0  0
 69 70  4  0  0  0  0
 70 71  4  0  0  0  0
 71 72  4  0  0  0  0
M  END
$$$$
