mol_ETKDG5_295
  PyMOL3.1          3D                             0

 73 79  0  0  0  0  0  0  0  0999 V2000
   -1.6627   -4.0156   -3.3338 C   0  0  0  0  0  0  0  0  0  0  0  0
   -2.0790   -2.5936   -3.2751 C   0  0  0  0  0  0  0  0  0  0  0  0
   -2.1697   -1.9452   -4.5312 O   0  0  0  0  0  0  0  0  0  0  0  0
   -0.9501   -1.5929   -5.1520 C   0  0  0  0  0  0  0  0  0  0  0  0
   -3.3738   -2.4090   -2.5854 C   0  0  0  0  0  0  0  0  0  0  0  0
   -4.4787   -2.7508   -3.2313 N   0  0  0  0  0  0  0  0  0  0  0  0
   -5.6937   -2.6648   -2.6439 C   0  0  0  0  0  0  0  0  0  0  0  0
   -5.8411   -2.2214   -1.3257 C   0  0  0  0  0  0  0  0  0  0  0  0
   -4.6876   -1.8590   -0.6219 C   0  0  0  0  0  0  0  0  0  0  0  0
   -3.4492   -1.9343   -1.2787 C   0  0  0  0  0  0  0  0  0  0  0  0
   -2.2791   -1.5068   -0.5567 C   0  0  0  0  0  0  0  0  0  0  0  0
   -1.6112   -2.3106    0.3063 N   0  0  0  0  0  0  0  0  0  0  0  0
   -1.9016   -3.7516    0.6402 C   0  0  0  0  0  0  0  0  0  0  0  0
   -2.4957   -3.9451    1.9621 C   0  0  0  0  0  0  0  0  0  0  0  0
   -1.6272   -0.2483   -0.6945 C   0  0  0  0  0  0  0  0  0  0  0  0
   -1.8844    0.9315   -1.6022 C   0  0  0  0  0  0  0  0  0  0  0  0
   -2.9128    2.0383   -1.0886 C   0  0  0  0  0  0  0  0  0  0  0  0
   -2.8826    3.1710   -2.0960 C   0  0  0  0  0  0  0  0  0  0  0  0
   -4.3248    1.5416   -1.1259 C   0  0  0  0  0  0  0  0  0  0  0  0
   -2.5980    2.5849    0.3006 C   0  0  0  0  0  0  0  0  0  0  0  0
   -1.7910    3.8533    0.4222 O   0  0  0  0  0  0  0  0  0  0  0  0
   -2.0225    4.8624    1.4180 C   0  0  0  0  0  0  0  0  0  0  0  0
   -1.0700    6.0498    1.5022 C   0  0  0  0  0  0  0  0  0  0  0  0
   -0.2151    6.1017    0.3582 N   0  0  0  0  0  0  0  0  0  0  0  0
    0.7093    7.1371    0.2862 N   0  0  0  0  0  0  0  0  0  0  0  0
    2.0469    6.8784    0.1168 C   0  0  0  0  0  0  0  0  0  0  0  0
    2.4947    5.4535   -0.0190 C   0  0  0  0  0  0  0  0  0  0  0  0
    3.6081    5.3189   -0.9326 N   0  0  0  0  0  0  0  0  0  0  0  0
    3.4897    4.9065   -2.1994 C   0  0  0  0  0  0  0  0  0  0  0  0
    4.7695    4.6302   -2.9216 C   0  0  0  0  0  0  0  0  0  0  0  0
    5.1779    5.7178   -3.9665 C   0  0  0  0  0  0  0  0  0  0  0  0
    6.5789    5.5468   -4.4659 C   0  0  0  0  0  0  0  0  0  0  0  0
    4.8887    7.1160   -3.5126 C   0  0  0  0  0  0  0  0  0  0  0  0
    4.6186    3.2941   -3.5077 N   0  0  0  0  0  0  0  0  0  0  0  0
    4.8805    2.1981   -2.7093 C   0  0  0  0  0  0  0  0  0  0  0  0
    4.6302    0.7659   -3.1180 C   0  0  0  0  0  0  0  0  0  0  0  0
    3.1238    0.5838   -3.1623 C   0  0  0  0  0  0  0  0  0  0  0  0
    2.7409   -0.8135   -3.5439 C   0  0  0  0  0  0  0  0  0  0  0  0
    3.3583   -1.7400   -2.5875 N   0  0  0  0  0  0  0  0  0  0  0  0
    2.5821   -2.6161   -1.8514 C   0  0  0  0  0  0  0  0  0  0  0  0
    3.1293   -3.3492   -0.8130 C   0  0  0  0  0  0  0  0  0  0  0  0
    3.4989   -4.0498    0.0390 C   0  0  0  0  0  0  0  0  0  0  0  0
    4.0973   -4.8307    1.0516 C   0  0  0  0  0  0  0  0  0  0  0  0
    3.2558   -5.9516    1.3524 N   0  0  0  0  0  0  0  0  0  0  0  0
    2.2597   -5.8524    2.3447 C   0  0  0  0  0  0  0  0  0  0  0  0
    3.1046   -6.9894    0.3872 C   0  0  0  0  0  0  0  0  0  0  0  0
    4.3378   -3.9720    2.2822 C   0  0  0  0  0  0  0  0  0  0  0  0
    5.4695   -5.3150    0.5979 C   0  0  0  0  0  0  0  0  0  0  0  0
    1.3769   -2.7437   -2.0758 O   0  0  0  0  0  0  0  0  0  0  0  0
    4.7900   -1.6375   -2.4474 C   0  0  0  0  0  0  0  0  0  0  0  0
    5.2067   -0.2460   -2.1081 C   0  0  0  0  0  0  0  0  0  0  0  0
    5.3223    2.4124   -1.5593 O   0  0  0  0  0  0  0  0  0  0  0  0
    4.0674    3.1737   -4.8778 C   0  0  0  0  0  0  0  0  0  0  0  0
    2.3906    4.6575   -2.6632 O   0  0  0  0  0  0  0  0  0  0  0  0
    2.9438    4.8904    1.3842 C   0  0  0  0  0  0  0  0  0  0  0  0
    3.3786    3.4031    1.3658 C   0  0  0  0  0  0  0  0  0  0  0  0
    2.1524    2.5788    1.5382 C   0  0  0  0  0  0  0  0  0  0  0  0
    2.4678    1.1734    1.6357 N   0  0  0  0  0  0  0  0  0  0  0  0
    3.5074    0.8463    2.6422 C   0  0  0  0  0  0  0  0  0  0  0  0
    4.7176    1.7712    2.4983 C   0  0  0  0  0  0  0  0  0  0  0  0
    4.2930    3.1818    2.4633 O   0  0  0  0  0  0  0  0  0  0  0  0
    2.8932    7.7898    0.1171 O   0  0  0  0  0  0  0  0  0  0  0  0
    0.1516    8.4877    0.3374 C   0  0  0  0  0  0  0  0  0  0  0  0
   -0.8128    8.5947    1.5413 C   0  0  0  0  0  0  0  0  0  0  0  0
   -1.8006    7.4246    1.6227 C   0  0  0  0  0  0  0  0  0  0  0  0
   -2.9714    4.8417    2.2205 O   0  0  0  0  0  0  0  0  0  0  0  0
   -0.5467   -0.3474    0.1900 C   0  0  0  0  0  0  0  0  0  0  0  0
   -0.5686   -1.6167    0.7766 C   0  0  0  0  0  0  0  0  0  0  0  0
    0.4536   -1.9686    1.7079 C   0  0  0  0  0  0  0  0  0  0  0  0
    1.4403   -1.0114    1.9646 C   0  0  0  0  0  0  0  0  0  0  0  0
    1.4514    0.2468    1.3577 C   0  0  0  0  0  0  0  0  0  0  0  0
    0.4491    0.5888    0.4373 C   0  0  0  0  0  0  0  0  0  0  0  0
    5.2406    0.5011   -4.3390 F   0  0  0  0  0  0  0  0  0  0  0  0
  1  2  1  0  0  0  0
  2  3  1  0  0  0  0
  2  5  1  0  0  0  0
  3  4  1  0  0  0  0
  5  6  4  0  0  0  0
  5 10  4  0  0  0  0
  6  7  4  0  0  0  0
  7  8  4  0  0  0  0
  8  9  4  0  0  0  0
  9 10  4  0  0  0  0
 10 11  1  0  0  0  0
 11 12  4  0  0  0  0
 11 15  4  0  0  0  0
 12 13  1  0  0  0  0
 12 68  4  0  0  0  0
 13 14  1  0  0  0  0
 15 16  1  0  0  0  0
 15 67  4  0  0  0  0
 16 17  1  0  0  0  0
 17 18  1  0  0  0  0
 17 19  1  0  0  0  0
 17 20  1  0  0  0  0
 20 21  1  0  0  0  0
 21 22  1  0  0  0  0
 22 23  1  0  0  0  0
 22 66  2  0  0  0  0
 23 24  1  0  0  0  0
 23 65  1  0  0  0  0
 24 25  1  0  0  0  0
 25 26  1  0  0  0  0
 25 63  1  0  0  0  0
 26 27  1  0  0  0  0
 26 62  2  0  0  0  0
 27 28  1  0  0  0  0
 27 55  1  0  0  0  0
 28 29  1  0  0  0  0
 29 30  1  0  0  0  0
 29 54  2  0  0  0  0
 30 31  1  0  0  0  0
 30 34  1  0  0  0  0
 31 32  1  0  0  0  0
 31 33  1  0  0  0  0
 34 35  1  0  0  0  0
 34 53  1  0  0  0  0
 35 36  1  0  0  0  0
 35 52  2  0  0  0  0
 36 37  1  0  0  0  0
 36 51  1  0  0  0  0
 36 73  1  0  0  0  0
 37 38  1  0  0  0  0
 38 39  1  0  0  0  0
 39 40  1  0  0  0  0
 39 50  1  0  0  0  0
 40 41  1  0  0  0  0
 40 49  2  0  0  0  0
 41 42  1  0  0  0  0
 42 43  1  0  0  0  0
 43 44  1  0  0  0  0
 43 47  1  0  0  0  0
 43 48  1  0  0  0  0
 44 45  1  0  0  0  0
 44 46  1  0  0  0  0
 50 51  1  0  0  0  0
 55 56  1  0  0  0  0
 56 57  1  0  0  0  0
 56 61  1  0  0  0  0
 57 58  1  0  0  0  0
 58 59  1  0  0  0  0
 58 71  1  0  0  0  0
 59 60  1  0  0  0  0
 60 61  1  0  0  0  0
 63 64  1  0  0  0  0
 64 65  1  0  0  0  0
 67 68  4  0  0  0  0
 67 72  4  0  0  0  0
 68 69  4  0  0  0  0
 69 70  4  0  0  0  0
 70 71  4  0  0  0  0
 71 72  4  0  0  0  0
M  END
$$$$
