mol_ETKDG0_308
  PyMOL3.1          3D                             0

 73 79  0  0  0  0  0  0  0  0999 V2000
    3.9882    0.3066    5.7497 C   0  0  0  0  0  0  0  0  0  0  0  0
    2.8223   -0.3783    5.1418 C   0  0  0  0  0  0  0  0  0  0  0  0
    1.6186    0.3533    5.1640 O   0  0  0  0  0  0  0  0  0  0  0  0
    1.4964    1.4438    4.2807 C   0  0  0  0  0  0  0  0  0  0  0  0
    2.5367   -1.6884    5.7681 C   0  0  0  0  0  0  0  0  0  0  0  0
    2.1096   -1.6897    7.0225 N   0  0  0  0  0  0  0  0  0  0  0  0
    1.8861   -2.8399    7.6857 C   0  0  0  0  0  0  0  0  0  0  0  0
    2.1013   -4.0853    7.0810 C   0  0  0  0  0  0  0  0  0  0  0  0
    2.5596   -4.1097    5.7526 C   0  0  0  0  0  0  0  0  0  0  0  0
    2.7488   -2.8865    5.0886 C   0  0  0  0  0  0  0  0  0  0  0  0
    3.1743   -2.9109    3.7037 C   0  0  0  0  0  0  0  0  0  0  0  0
    4.4738   -2.9922    3.3287 N   0  0  0  0  0  0  0  0  0  0  0  0
    5.6845   -3.0676    4.2191 C   0  0  0  0  0  0  0  0  0  0  0  0
    6.2171   -4.4401    4.3309 C   0  0  0  0  0  0  0  0  0  0  0  0
    2.3339   -2.7676    2.5603 C   0  0  0  0  0  0  0  0  0  0  0  0
    0.8528   -2.5423    2.4275 C   0  0  0  0  0  0  0  0  0  0  0  0
   -0.0712   -3.8357    2.3317 C   0  0  0  0  0  0  0  0  0  0  0  0
   -0.1054   -4.6157    3.6319 C   0  0  0  0  0  0  0  0  0  0  0  0
   -1.4803   -3.3441    2.1337 C   0  0  0  0  0  0  0  0  0  0  0  0
    0.3056   -4.7981    1.1918 C   0  0  0  0  0  0  0  0  0  0  0  0
   -0.3108   -4.4600   -0.1502 O   0  0  0  0  0  0  0  0  0  0  0  0
   -0.8794   -5.4104   -1.0656 C   0  0  0  0  0  0  0  0  0  0  0  0
   -1.4866   -4.9218   -2.3829 C   0  0  0  0  0  0  0  0  0  0  0  0
   -1.7128   -3.5102   -2.3197 N   0  0  0  0  0  0  0  0  0  0  0  0
   -2.2984   -2.8939   -3.4211 N   0  0  0  0  0  0  0  0  0  0  0  0
   -1.6887   -1.8430   -4.0424 C   0  0  0  0  0  0  0  0  0  0  0  0
   -0.3679   -1.3802   -3.5191 C   0  0  0  0  0  0  0  0  0  0  0  0
   -0.2414    0.0611   -3.5403 N   0  0  0  0  0  0  0  0  0  0  0  0
   -0.3584    0.8214   -2.4379 C   0  0  0  0  0  0  0  0  0  0  0  0
   -0.0333    2.2699   -2.5885 C   0  0  0  0  0  0  0  0  0  0  0  0
   -1.2769    3.2205   -2.6314 C   0  0  0  0  0  0  0  0  0  0  0  0
   -0.9158    4.6335   -2.9545 C   0  0  0  0  0  0  0  0  0  0  0  0
   -2.3777    2.6977   -3.4993 C   0  0  0  0  0  0  0  0  0  0  0  0
    0.8719    2.5867   -1.4784 N   0  0  0  0  0  0  0  0  0  0  0  0
    2.2119    2.3143   -1.6281 C   0  0  0  0  0  0  0  0  0  0  0  0
    3.2449    2.4890   -0.5453 C   0  0  0  0  0  0  0  0  0  0  0  0
    4.6697    2.6391   -1.0734 C   0  0  0  0  0  0  0  0  0  0  0  0
    5.6399    2.7004    0.0510 C   0  0  0  0  0  0  0  0  0  0  0  0
    5.4480    1.5985    1.0115 N   0  0  0  0  0  0  0  0  0  0  0  0
    6.4789    0.8536    1.4985 C   0  0  0  0  0  0  0  0  0  0  0  0
    7.7000    0.8980    0.8970 C   0  0  0  0  0  0  0  0  0  0  0  0
    8.7733    0.8956    0.4905 C   0  0  0  0  0  0  0  0  0  0  0  0
    9.9994    1.0141   -0.1826 C   0  0  0  0  0  0  0  0  0  0  0  0
   11.1413    0.7013    0.5956 N   0  0  0  0  0  0  0  0  0  0  0  0
   11.0436    0.3563    1.9388 C   0  0  0  0  0  0  0  0  0  0  0  0
   12.4306    0.7220    0.0458 C   0  0  0  0  0  0  0  0  0  0  0  0
    9.9609    0.0936   -1.3985 C   0  0  0  0  0  0  0  0  0  0  0  0
   10.1262    2.4504   -0.6876 C   0  0  0  0  0  0  0  0  0  0  0  0
    6.3091    0.1011    2.4742 O   0  0  0  0  0  0  0  0  0  0  0  0
    4.1184    1.3254    1.4509 C   0  0  0  0  0  0  0  0  0  0  0  0
    3.1709    1.2389    0.3217 C   0  0  0  0  0  0  0  0  0  0  0  0
    2.5880    1.8540   -2.7236 O   0  0  0  0  0  0  0  0  0  0  0  0
    0.2904    3.0419   -0.2019 C   0  0  0  0  0  0  0  0  0  0  0  0
   -0.5935    0.3037   -1.3554 O   0  0  0  0  0  0  0  0  0  0  0  0
    0.7945   -2.0466   -4.3558 C   0  0  0  0  0  0  0  0  0  0  0  0
    2.2343   -1.7630   -3.8406 C   0  0  0  0  0  0  0  0  0  0  0  0
    2.4609   -2.6097   -2.6334 C   0  0  0  0  0  0  0  0  0  0  0  0
    3.8090   -2.4951   -2.1343 N   0  0  0  0  0  0  0  0  0  0  0  0
    4.8529   -2.7385   -3.1425 C   0  0  0  0  0  0  0  0  0  0  0  0
    4.5512   -1.9566   -4.4352 C   0  0  0  0  0  0  0  0  0  0  0  0
    3.1662   -2.1628   -4.8803 O   0  0  0  0  0  0  0  0  0  0  0  0
   -2.1767   -1.2982   -5.0503 O   0  0  0  0  0  0  0  0  0  0  0  0
   -3.6139   -3.4098   -3.8087 C   0  0  0  0  0  0  0  0  0  0  0  0
   -3.5250   -4.9472   -3.9388 C   0  0  0  0  0  0  0  0  0  0  0  0
   -2.8567   -5.6061   -2.7111 C   0  0  0  0  0  0  0  0  0  0  0  0
   -0.8896   -6.6306   -0.8489 O   0  0  0  0  0  0  0  0  0  0  0  0
    3.2348   -2.7962    1.4788 C   0  0  0  0  0  0  0  0  0  0  0  0
    4.5247   -2.9379    1.9895 C   0  0  0  0  0  0  0  0  0  0  0  0
    5.6357   -2.9549    1.0835 C   0  0  0  0  0  0  0  0  0  0  0  0
    5.3560   -2.7995   -0.2769 C   0  0  0  0  0  0  0  0  0  0  0  0
    4.0511   -2.6522   -0.7635 C   0  0  0  0  0  0  0  0  0  0  0  0
    2.9708   -2.6497    0.1275 C   0  0  0  0  0  0  0  0  0  0  0  0
    3.0049    3.6201    0.2111 F   0  0  0  0  0  0  0  0  0  0  0  0
  1  2  1  0  0  0  0
  2  3  1  0  0  0  0
  2  5  1  0  0  0  0
  3  4  1  0  0  0  0
  5  6  4  0  0  0  0
  5 10  4  0  0  0  0
  6  7  4  0  0  0  0
  7  8  4  0  0  0  0
  8  9  4  0  0  0  0
  9 10  4  0  0  0  0
 10 11  1  0  0  0  0
 11 12  4  0  0  0  0
 11 15  4  0  0  0  0
 12 13  1  0  0  0  0
 12 68  4  0  0  0  0
 13 14  1  0  0  0  0
 15 16  1  0  0  0  0
 15 67  4  0  0  0  0
 16 17  1  0  0  0  0
 17 18  1  0  0  0  0
 17 19  1  0  0  0  0
 17 20  1  0  0  0  0
 20 21  1  0  0  0  0
 21 22  1  0  0  0  0
 22 23  1  0  0  0  0
 22 66  2  0  0  0  0
 23 24  1  0  0  0  0
 23 65  1  0  0  0  0
 24 25  1  0  0  0  0
 25 26  1  0  0  0  0
 25 63  1  0  0  0  0
 26 27  1  0  0  0  0
 26 62  2  0  0  0  0
 27 28  1  0  0  0  0
 27 55  1  0  0  0  0
 28 29  1  0  0  0  0
 29 30  1  0  0  0  0
 29 54  2  0  0  0  0
 30 31  1  0  0  0  0
 30 34  1  0  0  0  0
 31 32  1  0  0  0  0
 31 33  1  0  0  0  0
 34 35  1  0  0  0  0
 34 53  1  0  0  0  0
 35 36  1  0  0  0  0
 35 52  2  0  0  0  0
 36 37  1  0  0  0  0
 36 51  1  0  0  0  0
 36 73  1  0  0  0  0
 37 38  1  0  0  0  0
 38 39  1  0  0  0  0
 39 40  1  0  0  0  0
 39 50  1  0  0  0  0
 40 41  1  0  0  0  0
 40 49  2  0  0  0  0
 41 42  1  0  0  0  0
 42 43  1  0  0  0  0
 43 44  1  0  0  0  0
 43 47  1  0  0  0  0
 43 48  1  0  0  0  0
 44 45  1  0  0  0  0
 44 46  1  0  0  0  0
 50 51  1  0  0  0  0
 55 56  1  0  0  0  0
 56 57  1  0  0  0  0
 56 61  1  0  0  0  0
 57 58  1  0  0  0  0
 58 59  1  0  0  0  0
 58 71  1  0  0  0  0
 59 60  1  0  0  0  0
 60 61  1  0  0  0  0
 63 64  1  0  0  0  0
 64 65  1  0  0  0  0
 67 68  4  0  0  0  0
 67 72  4  0  0  0  0
 68 69  4  0  0  0  0
 69 70  4  0  0  0  0
 70 71  4  0  0  0  0
 71 72  4  0  0  0  0
M  END
$$$$
