mol_ETKDG2_148
  PyMOL3.1          3D                             0

 73 79  0  0  0  0  0  0  0  0999 V2000
    2.0460    2.4863    4.1369 C   0  0  0  0  0  0  0  0  0  0  0  0
    1.9741    1.4059    3.1165 C   0  0  0  0  0  0  0  0  0  0  0  0
    3.1788    1.1911    2.3955 O   0  0  0  0  0  0  0  0  0  0  0  0
    3.5416    2.1595    1.4387 C   0  0  0  0  0  0  0  0  0  0  0  0
    1.5743    0.1019    3.6953 C   0  0  0  0  0  0  0  0  0  0  0  0
    2.5012   -0.6041    4.3264 N   0  0  0  0  0  0  0  0  0  0  0  0
    2.2048   -1.7825    4.9213 C   0  0  0  0  0  0  0  0  0  0  0  0
    0.9056   -2.3021    4.9100 C   0  0  0  0  0  0  0  0  0  0  0  0
   -0.0929   -1.5648    4.2580 C   0  0  0  0  0  0  0  0  0  0  0  0
    0.2567   -0.3674    3.6248 C   0  0  0  0  0  0  0  0  0  0  0  0
   -0.7768    0.3517    2.9136 C   0  0  0  0  0  0  0  0  0  0  0  0
   -1.6190    1.2491    3.5064 N   0  0  0  0  0  0  0  0  0  0  0  0
   -1.6285    1.6857    4.9488 C   0  0  0  0  0  0  0  0  0  0  0  0
   -2.7282    1.0927    5.7166 C   0  0  0  0  0  0  0  0  0  0  0  0
   -1.0296    0.2822    1.5136 C   0  0  0  0  0  0  0  0  0  0  0  0
   -0.2806   -0.4214    0.4031 C   0  0  0  0  0  0  0  0  0  0  0  0
   -0.6836   -1.9215    0.0588 C   0  0  0  0  0  0  0  0  0  0  0  0
    0.1405   -2.3288   -1.1504 C   0  0  0  0  0  0  0  0  0  0  0  0
   -0.2746   -2.8882    1.1183 C   0  0  0  0  0  0  0  0  0  0  0  0
   -2.1616   -2.0868   -0.2468 C   0  0  0  0  0  0  0  0  0  0  0  0
   -2.5723   -1.9354   -1.6967 O   0  0  0  0  0  0  0  0  0  0  0  0
   -3.5380   -2.7588   -2.3542 C   0  0  0  0  0  0  0  0  0  0  0  0
   -3.9068   -2.4460   -3.8040 C   0  0  0  0  0  0  0  0  0  0  0  0
   -2.9573   -1.5338   -4.3789 N   0  0  0  0  0  0  0  0  0  0  0  0
   -3.1282   -1.1583   -5.7109 N   0  0  0  0  0  0  0  0  0  0  0  0
   -3.1800    0.1681   -6.0735 C   0  0  0  0  0  0  0  0  0  0  0  0
   -3.0846    1.2113   -4.9986 C   0  0  0  0  0  0  0  0  0  0  0  0
   -2.3133    2.3749   -5.4059 N   0  0  0  0  0  0  0  0  0  0  0  0
   -1.0461    2.6000   -5.0044 C   0  0  0  0  0  0  0  0  0  0  0  0
   -0.4586    3.9331   -5.3463 C   0  0  0  0  0  0  0  0  0  0  0  0
    0.5152    3.9367   -6.5719 C   0  0  0  0  0  0  0  0  0  0  0  0
    0.8283    5.3192   -7.0566 C   0  0  0  0  0  0  0  0  0  0  0  0
    0.1036    3.0163   -7.6757 C   0  0  0  0  0  0  0  0  0  0  0  0
    0.1736    4.4234   -4.1073 N   0  0  0  0  0  0  0  0  0  0  0  0
   -0.6220    5.0647   -3.1768 C   0  0  0  0  0  0  0  0  0  0  0  0
   -0.1577    5.5432   -1.8150 C   0  0  0  0  0  0  0  0  0  0  0  0
   -1.0729    6.6262   -1.2268 C   0  0  0  0  0  0  0  0  0  0  0  0
   -0.6675    6.9844    0.1589 C   0  0  0  0  0  0  0  0  0  0  0  0
   -0.4815    5.7962    1.0198 N   0  0  0  0  0  0  0  0  0  0  0  0
   -0.9948    5.7084    2.2870 C   0  0  0  0  0  0  0  0  0  0  0  0
   -1.9601    6.6031    2.7339 C   0  0  0  0  0  0  0  0  0  0  0  0
   -2.7305    7.3466    3.1924 C   0  0  0  0  0  0  0  0  0  0  0  0
   -3.6572    8.3370    3.5596 C   0  0  0  0  0  0  0  0  0  0  0  0
   -3.0150    9.6169    3.4990 N   0  0  0  0  0  0  0  0  0  0  0  0
   -2.0200    9.9200    4.4581 C   0  0  0  0  0  0  0  0  0  0  0  0
   -3.4958   10.6777    2.7147 C   0  0  0  0  0  0  0  0  0  0  0  0
   -4.8528    8.2675    2.6218 C   0  0  0  0  0  0  0  0  0  0  0  0
   -4.1950    8.1205    4.9653 C   0  0  0  0  0  0  0  0  0  0  0  0
   -0.6118    4.7982    3.0463 O   0  0  0  0  0  0  0  0  0  0  0  0
    0.2865    4.7078    0.4753 C   0  0  0  0  0  0  0  0  0  0  0  0
   -0.1575    4.3317   -0.8912 C   0  0  0  0  0  0  0  0  0  0  0  0
   -1.8230    5.2326   -3.4672 O   0  0  0  0  0  0  0  0  0  0  0  0
    1.5919    4.0986   -3.8580 C   0  0  0  0  0  0  0  0  0  0  0  0
   -0.4842    1.7970   -4.2854 O   0  0  0  0  0  0  0  0  0  0  0  0
   -4.5318    1.6839   -4.5809 C   0  0  0  0  0  0  0  0  0  0  0  0
   -4.5706    2.7226   -3.4183 C   0  0  0  0  0  0  0  0  0  0  0  0
   -4.3577    1.9762   -2.1434 C   0  0  0  0  0  0  0  0  0  0  0  0
   -4.4916    2.8255   -0.9767 N   0  0  0  0  0  0  0  0  0  0  0  0
   -5.7364    3.6209   -0.9409 C   0  0  0  0  0  0  0  0  0  0  0  0
   -5.9943    4.2983   -2.2996 C   0  0  0  0  0  0  0  0  0  0  0  0
   -5.8834    3.3371   -3.4109 O   0  0  0  0  0  0  0  0  0  0  0  0
   -3.3612    0.5232   -7.2538 O   0  0  0  0  0  0  0  0  0  0  0  0
   -3.1674   -2.2577   -6.6780 C   0  0  0  0  0  0  0  0  0  0  0  0
   -4.1652   -3.3371   -6.1878 C   0  0  0  0  0  0  0  0  0  0  0  0
   -3.9557   -3.7154   -4.7124 C   0  0  0  0  0  0  0  0  0  0  0  0
   -4.1083   -3.7262   -1.8114 O   0  0  0  0  0  0  0  0  0  0  0  0
   -2.1211    1.1631    1.3289 C   0  0  0  0  0  0  0  0  0  0  0  0
   -2.4439    1.7355    2.5621 C   0  0  0  0  0  0  0  0  0  0  0  0
   -3.4956    2.7196    2.6311 C   0  0  0  0  0  0  0  0  0  0  0  0
   -4.1429    3.0560    1.4325 C   0  0  0  0  0  0  0  0  0  0  0  0
   -3.8166    2.4626    0.2075 C   0  0  0  0  0  0  0  0  0  0  0  0
   -2.7789    1.5091    0.1476 C   0  0  0  0  0  0  0  0  0  0  0  0
    1.1061    6.0969   -1.8732 F   0  0  0  0  0  0  0  0  0  0  0  0
  1  2  1  0  0  0  0
  2  3  1  0  0  0  0
  2  5  1  0  0  0  0
  3  4  1  0  0  0  0
  5  6  4  0  0  0  0
  5 10  4  0  0  0  0
  6  7  4  0  0  0  0
  7  8  4  0  0  0  0
  8  9  4  0  0  0  0
  9 10  4  0  0  0  0
 10 11  1  0  0  0  0
 11 12  4  0  0  0  0
 11 15  4  0  0  0  0
 12 13  1  0  0  0  0
 12 68  4  0  0  0  0
 13 14  1  0  0  0  0
 15 16  1  0  0  0  0
 15 67  4  0  0  0  0
 16 17  1  0  0  0  0
 17 18  1  0  0  0  0
 17 19  1  0  0  0  0
 17 20  1  0  0  0  0
 20 21  1  0  0  0  0
 21 22  1  0  0  0  0
 22 23  1  0  0  0  0
 22 66  2  0  0  0  0
 23 24  1  0  0  0  0
 23 65  1  0  0  0  0
 24 25  1  0  0  0  0
 25 26  1  0  0  0  0
 25 63  1  0  0  0  0
 26 27  1  0  0  0  0
 26 62  2  0  0  0  0
 27 28  1  0  0  0  0
 27 55  1  0  0  0  0
 28 29  1  0  0  0  0
 29 30  1  0  0  0  0
 29 54  2  0  0  0  0
 30 31  1  0  0  0  0
 30 34  1  0  0  0  0
 31 32  1  0  0  0  0
 31 33  1  0  0  0  0
 34 35  1  0  0  0  0
 34 53  1  0  0  0  0
 35 36  1  0  0  0  0
 35 52  2  0  0  0  0
 36 37  1  0  0  0  0
 36 51  1  0  0  0  0
 36 73  1  0  0  0  0
 37 38  1  0  0  0  0
 38 39  1  0  0  0  0
 39 40  1  0  0  0  0
 39 50  1  0  0  0  0
 40 41  1  0  0  0  0
 40 49  2  0  0  0  0
 41 42  1  0  0  0  0
 42 43  1  0  0  0  0
 43 44  1  0  0  0  0
 43 47  1  0  0  0  0
 43 48  1  0  0  0  0
 44 45  1  0  0  0  0
 44 46  1  0  0  0  0
 50 51  1  0  0  0  0
 55 56  1  0  0  0  0
 56 57  1  0  0  0  0
 56 61  1  0  0  0  0
 57 58  1  0  0  0  0
 58 59  1  0  0  0  0
 58 71  1  0  0  0  0
 59 60  1  0  0  0  0
 60 61  1  0  0  0  0
 63 64  1  0  0  0  0
 64 65  1  0  0  0  0
 67 68  4  0  0  0  0
 67 72  4  0  0  0  0
 68 69  4  0  0  0  0
 69 70  4  0  0  0  0
 70 71  4  0  0  0  0
 71 72  4  0  0  0  0
M  END
$$$$
