mol_ETKDG3_172
  PyMOL3.1          3D                             0

 73 79  0  0  0  0  0  0  0  0999 V2000
   -0.7082    8.3681    0.9002 C   0  0  0  0  0  0  0  0  0  0  0  0
    0.5112    7.5293    0.8676 C   0  0  0  0  0  0  0  0  0  0  0  0
    0.8877    6.9637    2.0966 O   0  0  0  0  0  0  0  0  0  0  0  0
    0.0534    5.9658    2.6379 C   0  0  0  0  0  0  0  0  0  0  0  0
    1.6787    8.2571    0.3577 C   0  0  0  0  0  0  0  0  0  0  0  0
    2.1639    9.2310    1.1065 N   0  0  0  0  0  0  0  0  0  0  0  0
    3.1959    9.9841    0.6827 C   0  0  0  0  0  0  0  0  0  0  0  0
    3.7901    9.7778   -0.5660 C   0  0  0  0  0  0  0  0  0  0  0  0
    3.2840    8.7618   -1.3757 C   0  0  0  0  0  0  0  0  0  0  0  0
    2.2288    7.9796   -0.8845 C   0  0  0  0  0  0  0  0  0  0  0  0
    1.7389    6.9068   -1.7064 C   0  0  0  0  0  0  0  0  0  0  0  0
    0.9196    7.1001   -2.7546 N   0  0  0  0  0  0  0  0  0  0  0  0
    0.3495    8.3993   -3.2460 C   0  0  0  0  0  0  0  0  0  0  0  0
    1.0293    8.8908   -4.4493 C   0  0  0  0  0  0  0  0  0  0  0  0
    1.9755    5.5258   -1.5065 C   0  0  0  0  0  0  0  0  0  0  0  0
    2.7295    4.8000   -0.4299 C   0  0  0  0  0  0  0  0  0  0  0  0
    4.2677    4.5687   -0.7459 C   0  0  0  0  0  0  0  0  0  0  0  0
    5.0342    5.8616   -0.9044 C   0  0  0  0  0  0  0  0  0  0  0  0
    4.8818    3.8987    0.4508 C   0  0  0  0  0  0  0  0  0  0  0  0
    4.4460    3.7317   -1.9984 C   0  0  0  0  0  0  0  0  0  0  0  0
    4.3484    2.2487   -1.7388 O   0  0  0  0  0  0  0  0  0  0  0  0
    5.3551    1.3010   -2.0821 C   0  0  0  0  0  0  0  0  0  0  0  0
    5.1285   -0.1599   -1.7700 C   0  0  0  0  0  0  0  0  0  0  0  0
    4.0275   -0.3158   -0.8819 N   0  0  0  0  0  0  0  0  0  0  0  0
    3.7038   -1.6031   -0.4891 N   0  0  0  0  0  0  0  0  0  0  0  0
    2.4417   -2.0804   -0.6377 C   0  0  0  0  0  0  0  0  0  0  0  0
    1.4027   -1.1651   -1.1904 C   0  0  0  0  0  0  0  0  0  0  0  0
    0.1533   -1.3075   -0.4989 N   0  0  0  0  0  0  0  0  0  0  0  0
   -0.2190   -0.4885    0.4761 C   0  0  0  0  0  0  0  0  0  0  0  0
   -1.6084   -0.6592    0.9717 C   0  0  0  0  0  0  0  0  0  0  0  0
   -1.7429   -1.4671    2.2915 C   0  0  0  0  0  0  0  0  0  0  0  0
   -3.1402   -1.9050    2.5572 C   0  0  0  0  0  0  0  0  0  0  0  0
   -0.7415   -2.5651    2.4316 C   0  0  0  0  0  0  0  0  0  0  0  0
   -2.1718    0.6756    1.0711 N   0  0  0  0  0  0  0  0  0  0  0  0
   -2.6901    1.2441   -0.0548 C   0  0  0  0  0  0  0  0  0  0  0  0
   -3.2464    2.6332   -0.1192 C   0  0  0  0  0  0  0  0  0  0  0  0
   -4.1684    2.8599   -1.3157 C   0  0  0  0  0  0  0  0  0  0  0  0
   -4.5982    4.2820   -1.3811 C   0  0  0  0  0  0  0  0  0  0  0  0
   -3.4306    5.1766   -1.3087 N   0  0  0  0  0  0  0  0  0  0  0  0
   -3.1728    6.1668   -2.1928 C   0  0  0  0  0  0  0  0  0  0  0  0
   -3.7512    6.2211   -3.4381 C   0  0  0  0  0  0  0  0  0  0  0  0
   -4.1570    6.4356   -4.4892 C   0  0  0  0  0  0  0  0  0  0  0  0
   -4.7072    6.5742   -5.7717 C   0  0  0  0  0  0  0  0  0  0  0  0
   -4.6439    7.9228   -6.1906 N   0  0  0  0  0  0  0  0  0  0  0  0
   -3.4160    8.6143   -6.1323 C   0  0  0  0  0  0  0  0  0  0  0  0
   -5.7494    8.6490   -6.6487 C   0  0  0  0  0  0  0  0  0  0  0  0
   -3.9487    5.7098   -6.7700 C   0  0  0  0  0  0  0  0  0  0  0  0
   -6.1244    6.0657   -5.7301 C   0  0  0  0  0  0  0  0  0  0  0  0
   -2.3412    7.0412   -1.8991 O   0  0  0  0  0  0  0  0  0  0  0  0
   -2.5147    4.9697   -0.2381 C   0  0  0  0  0  0  0  0  0  0  0  0
   -2.0547    3.5649   -0.2287 C   0  0  0  0  0  0  0  0  0  0  0  0
   -2.6770    0.5739   -1.1030 O   0  0  0  0  0  0  0  0  0  0  0  0
   -2.0295    1.4045    2.3461 C   0  0  0  0  0  0  0  0  0  0  0  0
    0.5101    0.4239    0.8234 O   0  0  0  0  0  0  0  0  0  0  0  0
    1.1640   -1.4086   -2.7261 C   0  0  0  0  0  0  0  0  0  0  0  0
    0.1658   -0.4004   -3.3579 C   0  0  0  0  0  0  0  0  0  0  0  0
    0.8845    0.8865   -3.4924 C   0  0  0  0  0  0  0  0  0  0  0  0
    0.0937    1.8732   -4.1818 N   0  0  0  0  0  0  0  0  0  0  0  0
   -0.4506    1.4414   -5.4725 C   0  0  0  0  0  0  0  0  0  0  0  0
   -1.0924    0.0530   -5.3441 C   0  0  0  0  0  0  0  0  0  0  0  0
   -0.1979   -0.8945   -4.6754 O   0  0  0  0  0  0  0  0  0  0  0  0
    2.1399   -3.2477   -0.3417 O   0  0  0  0  0  0  0  0  0  0  0  0
    4.7749   -2.3660    0.1467 C   0  0  0  0  0  0  0  0  0  0  0  0
    6.0428   -2.2855   -0.7192 C   0  0  0  0  0  0  0  0  0  0  0  0
    6.3702   -0.8463   -1.1354 C   0  0  0  0  0  0  0  0  0  0  0  0
    6.4247    1.5893   -2.6535 O   0  0  0  0  0  0  0  0  0  0  0  0
    1.2611    4.9169   -2.5430 C   0  0  0  0  0  0  0  0  0  0  0  0
    0.6349    5.9087   -3.2791 C   0  0  0  0  0  0  0  0  0  0  0  0
   -0.1915    5.5493   -4.3852 C   0  0  0  0  0  0  0  0  0  0  0  0
   -0.3523    4.1988   -4.6425 C   0  0  0  0  0  0  0  0  0  0  0  0
    0.2840    3.2169   -3.8867 C   0  0  0  0  0  0  0  0  0  0  0  0
    1.1060    3.5708   -2.8107 C   0  0  0  0  0  0  0  0  0  0  0  0
   -3.9923    2.9257    0.9992 F   0  0  0  0  0  0  0  0  0  0  0  0
  1  2  1  0  0  0  0
  2  3  1  0  0  0  0
  2  5  1  0  0  0  0
  3  4  1  0  0  0  0
  5  6  4  0  0  0  0
  5 10  4  0  0  0  0
  6  7  4  0  0  0  0
  7  8  4  0  0  0  0
  8  9  4  0  0  0  0
  9 10  4  0  0  0  0
 10 11  1  0  0  0  0
 11 12  4  0  0  0  0
 11 15  4  0  0  0  0
 12 13  1  0  0  0  0
 12 68  4  0  0  0  0
 13 14  1  0  0  0  0
 15 16  1  0  0  0  0
 15 67  4  0  0  0  0
 16 17  1  0  0  0  0
 17 18  1  0  0  0  0
 17 19  1  0  0  0  0
 17 20  1  0  0  0  0
 20 21  1  0  0  0  0
 21 22  1  0  0  0  0
 22 23  1  0  0  0  0
 22 66  2  0  0  0  0
 23 24  1  0  0  0  0
 23 65  1  0  0  0  0
 24 25  1  0  0  0  0
 25 26  1  0  0  0  0
 25 63  1  0  0  0  0
 26 27  1  0  0  0  0
 26 62  2  0  0  0  0
 27 28  1  0  0  0  0
 27 55  1  0  0  0  0
 28 29  1  0  0  0  0
 29 30  1  0  0  0  0
 29 54  2  0  0  0  0
 30 31  1  0  0  0  0
 30 34  1  0  0  0  0
 31 32  1  0  0  0  0
 31 33  1  0  0  0  0
 34 35  1  0  0  0  0
 34 53  1  0  0  0  0
 35 36  1  0  0  0  0
 35 52  2  0  0  0  0
 36 37  1  0  0  0  0
 36 51  1  0  0  0  0
 36 73  1  0  0  0  0
 37 38  1  0  0  0  0
 38 39  1  0  0  0  0
 39 40  1  0  0  0  0
 39 50  1  0  0  0  0
 40 41  1  0  0  0  0
 40 49  2  0  0  0  0
 41 42  1  0  0  0  0
 42 43  1  0  0  0  0
 43 44  1  0  0  0  0
 43 47  1  0  0  0  0
 43 48  1  0  0  0  0
 44 45  1  0  0  0  0
 44 46  1  0  0  0  0
 50 51  1  0  0  0  0
 55 56  1  0  0  0  0
 56 57  1  0  0  0  0
 56 61  1  0  0  0  0
 57 58  1  0  0  0  0
 58 59  1  0  0  0  0
 58 71  1  0  0  0  0
 59 60  1  0  0  0  0
 60 61  1  0  0  0  0
 63 64  1  0  0  0  0
 64 65  1  0  0  0  0
 67 68  4  0  0  0  0
 67 72  4  0  0  0  0
 68 69  4  0  0  0  0
 69 70  4  0  0  0  0
 70 71  4  0  0  0  0
 71 72  4  0  0  0  0
M  END
$$$$
