mol_ETKDG0_345
  PyMOL3.1          3D                             0

 73 79  0  0  0  0  0  0  0  0999 V2000
    5.8134    0.7636   -6.7026 C   0  0  0  0  0  0  0  0  0  0  0  0
    4.9210    1.2426   -5.6518 C   0  0  0  0  0  0  0  0  0  0  0  0
    3.7838    1.8105   -5.9595 O   0  0  0  0  0  0  0  0  0  0  0  0
    3.1220    1.5752   -7.1958 C   0  0  0  0  0  0  0  0  0  0  0  0
    5.4992    1.5676   -4.3483 C   0  0  0  0  0  0  0  0  0  0  0  0
    6.6796    2.1830   -4.3587 N   0  0  0  0  0  0  0  0  0  0  0  0
    7.3195    2.4796   -3.2217 C   0  0  0  0  0  0  0  0  0  0  0  0
    6.7945    2.1496   -1.9824 C   0  0  0  0  0  0  0  0  0  0  0  0
    5.5643    1.4930   -1.9503 C   0  0  0  0  0  0  0  0  0  0  0  0
    4.9031    1.2242   -3.1568 C   0  0  0  0  0  0  0  0  0  0  0  0
    3.5904    0.6345   -3.1152 C   0  0  0  0  0  0  0  0  0  0  0  0
    3.2821   -0.6220   -3.5369 N   0  0  0  0  0  0  0  0  0  0  0  0
    4.2146   -1.6699   -4.0979 C   0  0  0  0  0  0  0  0  0  0  0  0
    4.5763   -2.7178   -3.1153 C   0  0  0  0  0  0  0  0  0  0  0  0
    2.4296    1.2925   -2.6337 C   0  0  0  0  0  0  0  0  0  0  0  0
    2.2194    2.6272   -1.9895 C   0  0  0  0  0  0  0  0  0  0  0  0
    2.0607    3.8731   -2.9300 C   0  0  0  0  0  0  0  0  0  0  0  0
    3.4067    4.2987   -3.5106 C   0  0  0  0  0  0  0  0  0  0  0  0
    1.6373    5.0176   -2.0583 C   0  0  0  0  0  0  0  0  0  0  0  0
    1.0520    3.6642   -4.0542 C   0  0  0  0  0  0  0  0  0  0  0  0
   -0.3564    4.1178   -3.7385 O   0  0  0  0  0  0  0  0  0  0  0  0
   -1.1694    4.9033   -4.6015 C   0  0  0  0  0  0  0  0  0  0  0  0
   -2.5612    5.2881   -4.1230 C   0  0  0  0  0  0  0  0  0  0  0  0
   -2.5736    5.2811   -2.6965 N   0  0  0  0  0  0  0  0  0  0  0  0
   -3.7238    5.6771   -2.0391 N   0  0  0  0  0  0  0  0  0  0  0  0
   -4.2815    4.8763   -1.0839 C   0  0  0  0  0  0  0  0  0  0  0  0
   -3.6518    3.5412   -0.7879 C   0  0  0  0  0  0  0  0  0  0  0  0
   -3.6422    3.2804    0.6418 N   0  0  0  0  0  0  0  0  0  0  0  0
   -2.5598    3.4655    1.4192 C   0  0  0  0  0  0  0  0  0  0  0  0
   -2.7002    3.0585    2.8537 C   0  0  0  0  0  0  0  0  0  0  0  0
   -2.9407    4.2488    3.8459 C   0  0  0  0  0  0  0  0  0  0  0  0
   -3.2778    3.7768    5.2276 C   0  0  0  0  0  0  0  0  0  0  0  0
   -3.9233    5.2523    3.3252 C   0  0  0  0  0  0  0  0  0  0  0  0
   -1.4940    2.3155    3.1922 N   0  0  0  0  0  0  0  0  0  0  0  0
   -1.4336    0.9895    2.8770 C   0  0  0  0  0  0  0  0  0  0  0  0
   -0.2296    0.1187    3.0965 C   0  0  0  0  0  0  0  0  0  0  0  0
   -0.5246   -1.3600    2.8166 C   0  0  0  0  0  0  0  0  0  0  0  0
    0.7178   -2.1867    2.8393 C   0  0  0  0  0  0  0  0  0  0  0  0
    1.7561   -1.5726    1.9907 N   0  0  0  0  0  0  0  0  0  0  0  0
    2.3897   -2.2010    0.9592 C   0  0  0  0  0  0  0  0  0  0  0  0
    1.9611   -3.4069    0.4844 C   0  0  0  0  0  0  0  0  0  0  0  0
    1.7376   -4.4419    0.0450 C   0  0  0  0  0  0  0  0  0  0  0  0
    1.3553   -5.7119   -0.4052 C   0  0  0  0  0  0  0  0  0  0  0  0
    2.4320   -6.3876   -1.0440 N   0  0  0  0  0  0  0  0  0  0  0  0
    3.7594   -6.0019   -0.7824 C   0  0  0  0  0  0  0  0  0  0  0  0
    2.2605   -7.6179   -1.6865 C   0  0  0  0  0  0  0  0  0  0  0  0
    0.1855   -5.5535   -1.3602 C   0  0  0  0  0  0  0  0  0  0  0  0
    0.8758   -6.5299    0.7956 C   0  0  0  0  0  0  0  0  0  0  0  0
    3.3633   -1.6554    0.3992 O   0  0  0  0  0  0  0  0  0  0  0  0
    2.0719   -0.2116    2.2570 C   0  0  0  0  0  0  0  0  0  0  0  0
    0.8356    0.6002    2.1283 C   0  0  0  0  0  0  0  0  0  0  0  0
   -2.4396    0.4860    2.3405 O   0  0  0  0  0  0  0  0  0  0  0  0
   -0.3407    3.0508    3.7654 C   0  0  0  0  0  0  0  0  0  0  0  0
   -1.5009    3.8326    0.9282 O   0  0  0  0  0  0  0  0  0  0  0  0
   -4.4208    2.4012   -1.5514 C   0  0  0  0  0  0  0  0  0  0  0  0
   -3.8354    0.9685   -1.3982 C   0  0  0  0  0  0  0  0  0  0  0  0
   -2.6687    0.8527   -2.3030 C   0  0  0  0  0  0  0  0  0  0  0  0
   -2.1159   -0.4860   -2.3206 N   0  0  0  0  0  0  0  0  0  0  0  0
   -3.0946   -1.5475   -2.6237 C   0  0  0  0  0  0  0  0  0  0  0  0
   -4.3514   -1.3668   -1.7514 C   0  0  0  0  0  0  0  0  0  0  0  0
   -4.8570    0.0174   -1.8096 O   0  0  0  0  0  0  0  0  0  0  0  0
   -5.3182    5.2116   -0.4840 O   0  0  0  0  0  0  0  0  0  0  0  0
   -4.2367    7.0021   -2.3870 C   0  0  0  0  0  0  0  0  0  0  0  0
   -4.3057    7.1382   -3.9289 C   0  0  0  0  0  0  0  0  0  0  0  0
   -3.0032    6.7049   -4.6049 C   0  0  0  0  0  0  0  0  0  0  0  0
   -0.8035    5.2983   -5.7287 O   0  0  0  0  0  0  0  0  0  0  0  0
    1.4202    0.3428   -2.7964 C   0  0  0  0  0  0  0  0  0  0  0  0
    1.9745   -0.8152   -3.3329 C   0  0  0  0  0  0  0  0  0  0  0  0
    1.1274   -1.9555   -3.5453 C   0  0  0  0  0  0  0  0  0  0  0  0
   -0.2339   -1.8219   -3.1935 C   0  0  0  0  0  0  0  0  0  0  0  0
   -0.7607   -0.6249   -2.6660 C   0  0  0  0  0  0  0  0  0  0  0  0
    0.0867    0.4660   -2.4550 C   0  0  0  0  0  0  0  0  0  0  0  0
    0.2247    0.2095    4.4107 F   0  0  0  0  0  0  0  0  0  0  0  0
  1  2  1  0  0  0  0
  2  3  1  0  0  0  0
  2  5  1  0  0  0  0
  3  4  1  0  0  0  0
  5  6  4  0  0  0  0
  5 10  4  0  0  0  0
  6  7  4  0  0  0  0
  7  8  4  0  0  0  0
  8  9  4  0  0  0  0
  9 10  4  0  0  0  0
 10 11  1  0  0  0  0
 11 12  4  0  0  0  0
 11 15  4  0  0  0  0
 12 13  1  0  0  0  0
 12 68  4  0  0  0  0
 13 14  1  0  0  0  0
 15 16  1  0  0  0  0
 15 67  4  0  0  0  0
 16 17  1  0  0  0  0
 17 18  1  0  0  0  0
 17 19  1  0  0  0  0
 17 20  1  0  0  0  0
 20 21  1  0  0  0  0
 21 22  1  0  0  0  0
 22 23  1  0  0  0  0
 22 66  2  0  0  0  0
 23 24  1  0  0  0  0
 23 65  1  0  0  0  0
 24 25  1  0  0  0  0
 25 26  1  0  0  0  0
 25 63  1  0  0  0  0
 26 27  1  0  0  0  0
 26 62  2  0  0  0  0
 27 28  1  0  0  0  0
 27 55  1  0  0  0  0
 28 29  1  0  0  0  0
 29 30  1  0  0  0  0
 29 54  2  0  0  0  0
 30 31  1  0  0  0  0
 30 34  1  0  0  0  0
 31 32  1  0  0  0  0
 31 33  1  0  0  0  0
 34 35  1  0  0  0  0
 34 53  1  0  0  0  0
 35 36  1  0  0  0  0
 35 52  2  0  0  0  0
 36 37  1  0  0  0  0
 36 51  1  0  0  0  0
 36 73  1  0  0  0  0
 37 38  1  0  0  0  0
 38 39  1  0  0  0  0
 39 40  1  0  0  0  0
 39 50  1  0  0  0  0
 40 41  1  0  0  0  0
 40 49  2  0  0  0  0
 41 42  1  0  0  0  0
 42 43  1  0  0  0  0
 43 44  1  0  0  0  0
 43 47  1  0  0  0  0
 43 48  1  0  0  0  0
 44 45  1  0  0  0  0
 44 46  1  0  0  0  0
 50 51  1  0  0  0  0
 55 56  1  0  0  0  0
 56 57  1  0  0  0  0
 56 61  1  0  0  0  0
 57 58  1  0  0  0  0
 58 59  1  0  0  0  0
 58 71  1  0  0  0  0
 59 60  1  0  0  0  0
 60 61  1  0  0  0  0
 63 64  1  0  0  0  0
 64 65  1  0  0  0  0
 67 68  4  0  0  0  0
 67 72  4  0  0  0  0
 68 69  4  0  0  0  0
 69 70  4  0  0  0  0
 70 71  4  0  0  0  0
 71 72  4  0  0  0  0
M  END
$$$$
