mol_ETKDG4_233
  PyMOL3.1          3D                             0

 73 79  0  0  0  0  0  0  0  0999 V2000
   -6.3675   -4.5596   -3.3413 C   0  0  0  0  0  0  0  0  0  0  0  0
   -5.8795   -4.6803   -1.9486 C   0  0  0  0  0  0  0  0  0  0  0  0
   -6.8893   -4.6522   -0.9495 O   0  0  0  0  0  0  0  0  0  0  0  0
   -7.4592   -3.4008   -0.6370 C   0  0  0  0  0  0  0  0  0  0  0  0
   -5.0895   -5.9133   -1.7253 C   0  0  0  0  0  0  0  0  0  0  0  0
   -5.7490   -7.0509   -1.5584 N   0  0  0  0  0  0  0  0  0  0  0  0
   -5.1000   -8.2225   -1.3862 C   0  0  0  0  0  0  0  0  0  0  0  0
   -3.7039   -8.2939   -1.3849 C   0  0  0  0  0  0  0  0  0  0  0  0
   -2.9881   -7.1091   -1.5624 C   0  0  0  0  0  0  0  0  0  0  0  0
   -3.6931   -5.9083   -1.7248 C   0  0  0  0  0  0  0  0  0  0  0  0
   -2.9135   -4.7055   -1.8813 C   0  0  0  0  0  0  0  0  0  0  0  0
   -2.3005   -4.3707   -3.0446 N   0  0  0  0  0  0  0  0  0  0  0  0
   -2.3698   -5.0908   -4.3663 C   0  0  0  0  0  0  0  0  0  0  0  0
   -1.1264   -5.7672   -4.7369 C   0  0  0  0  0  0  0  0  0  0  0  0
   -2.7039   -3.7013   -0.9001 C   0  0  0  0  0  0  0  0  0  0  0  0
   -3.2832   -3.5111    0.4743 C   0  0  0  0  0  0  0  0  0  0  0  0
   -2.5659   -4.2573    1.6713 C   0  0  0  0  0  0  0  0  0  0  0  0
   -2.9530   -5.7379    1.7216 C   0  0  0  0  0  0  0  0  0  0  0  0
   -3.1132   -3.6708    2.9360 C   0  0  0  0  0  0  0  0  0  0  0  0
   -1.0469   -4.1315    1.6344 C   0  0  0  0  0  0  0  0  0  0  0  0
   -0.4696   -2.9744    2.4316 O   0  0  0  0  0  0  0  0  0  0  0  0
    0.6409   -3.0875    3.3175 C   0  0  0  0  0  0  0  0  0  0  0  0
    1.1401   -1.8210    4.0132 C   0  0  0  0  0  0  0  0  0  0  0  0
    0.0549   -0.8891    4.1602 N   0  0  0  0  0  0  0  0  0  0  0  0
    0.2880    0.2959    4.8461 N   0  0  0  0  0  0  0  0  0  0  0  0
    0.0093    1.5127    4.2818 C   0  0  0  0  0  0  0  0  0  0  0  0
   -0.4873    1.5588    2.8659 C   0  0  0  0  0  0  0  0  0  0  0  0
   -1.5181    2.5605    2.6751 N   0  0  0  0  0  0  0  0  0  0  0  0
   -2.8114    2.2614    2.4821 C   0  0  0  0  0  0  0  0  0  0  0  0
   -3.7223    3.3873    2.1136 C   0  0  0  0  0  0  0  0  0  0  0  0
   -4.5388    3.9684    3.3014 C   0  0  0  0  0  0  0  0  0  0  0  0
   -4.1988    3.4814    4.6432 C   0  0  0  0  0  0  0  0  0  0  0  0
   -4.7425    5.4540    3.1910 C   0  0  0  0  0  0  0  0  0  0  0  0
   -4.5961    2.8784    1.0391 N   0  0  0  0  0  0  0  0  0  0  0  0
   -4.1058    2.8357   -0.2537 C   0  0  0  0  0  0  0  0  0  0  0  0
   -4.8411    2.2469   -1.4409 C   0  0  0  0  0  0  0  0  0  0  0  0
   -4.7940    0.7428   -1.2774 C   0  0  0  0  0  0  0  0  0  0  0  0
   -5.4884    0.0538   -2.4058 C   0  0  0  0  0  0  0  0  0  0  0  0
   -4.8354    0.4564   -3.6570 N   0  0  0  0  0  0  0  0  0  0  0  0
   -4.2930   -0.5125   -4.4778 C   0  0  0  0  0  0  0  0  0  0  0  0
   -3.4020   -0.2228   -5.5055 C   0  0  0  0  0  0  0  0  0  0  0  0
   -2.6964   -0.1145   -6.4289 C   0  0  0  0  0  0  0  0  0  0  0  0
   -1.8493    0.2050   -7.5211 C   0  0  0  0  0  0  0  0  0  0  0  0
   -2.5876    0.1256   -8.7502 N   0  0  0  0  0  0  0  0  0  0  0  0
   -3.5846    1.1045   -9.0070 C   0  0  0  0  0  0  0  0  0  0  0  0
   -2.7259   -1.1123   -9.4269 C   0  0  0  0  0  0  0  0  0  0  0  0
   -0.6588   -0.7282   -7.5582 C   0  0  0  0  0  0  0  0  0  0  0  0
   -1.2880    1.6110   -7.3310 C   0  0  0  0  0  0  0  0  0  0  0  0
   -4.5539   -1.7055   -4.2884 O   0  0  0  0  0  0  0  0  0  0  0  0
   -4.7880    1.8798   -3.9158 C   0  0  0  0  0  0  0  0  0  0  0  0
   -4.1738    2.6228   -2.7753 C   0  0  0  0  0  0  0  0  0  0  0  0
   -2.9587    3.2811   -0.4395 O   0  0  0  0  0  0  0  0  0  0  0  0
   -5.9189    2.3268    1.3935 C   0  0  0  0  0  0  0  0  0  0  0  0
   -3.1764    1.0900    2.4998 O   0  0  0  0  0  0  0  0  0  0  0  0
    0.7186    1.8914    1.9032 C   0  0  0  0  0  0  0  0  0  0  0  0
    0.3436    1.9013    0.4019 C   0  0  0  0  0  0  0  0  0  0  0  0
    0.2957    0.4875   -0.0421 C   0  0  0  0  0  0  0  0  0  0  0  0
    0.0251    0.3842   -1.4502 N   0  0  0  0  0  0  0  0  0  0  0  0
    0.9408    1.1791   -2.3046 C   0  0  0  0  0  0  0  0  0  0  0  0
    1.0655    2.6111   -1.7710 C   0  0  0  0  0  0  0  0  0  0  0  0
    1.3720    2.6165   -0.3291 O   0  0  0  0  0  0  0  0  0  0  0  0
    0.2149    2.5779    4.8929 O   0  0  0  0  0  0  0  0  0  0  0  0
    0.7792    0.1407    6.2191 C   0  0  0  0  0  0  0  0  0  0  0  0
    1.9991   -0.8162    6.2024 C   0  0  0  0  0  0  0  0  0  0  0  0
    1.7110   -2.1113    5.4384 C   0  0  0  0  0  0  0  0  0  0  0  0
    1.2292   -4.1631    3.5711 O   0  0  0  0  0  0  0  0  0  0  0  0
   -1.8606   -2.7798   -1.5449 C   0  0  0  0  0  0  0  0  0  0  0  0
   -1.6466   -3.2200   -2.8489 C   0  0  0  0  0  0  0  0  0  0  0  0
   -0.8380   -2.4286   -3.7306 C   0  0  0  0  0  0  0  0  0  0  0  0
   -0.3099   -1.2392   -3.2212 C   0  0  0  0  0  0  0  0  0  0  0  0
   -0.5349   -0.8138   -1.9164 C   0  0  0  0  0  0  0  0  0  0  0  0
   -1.3456   -1.5837   -1.0532 C   0  0  0  0  0  0  0  0  0  0  0  0
   -6.1458    2.7247   -1.4994 F   0  0  0  0  0  0  0  0  0  0  0  0
  1  2  1  0  0  0  0
  2  3  1  0  0  0  0
  2  5  1  0  0  0  0
  3  4  1  0  0  0  0
  5  6  4  0  0  0  0
  5 10  4  0  0  0  0
  6  7  4  0  0  0  0
  7  8  4  0  0  0  0
  8  9  4  0  0  0  0
  9 10  4  0  0  0  0
 10 11  1  0  0  0  0
 11 12  4  0  0  0  0
 11 15  4  0  0  0  0
 12 13  1  0  0  0  0
 12 68  4  0  0  0  0
 13 14  1  0  0  0  0
 15 16  1  0  0  0  0
 15 67  4  0  0  0  0
 16 17  1  0  0  0  0
 17 18  1  0  0  0  0
 17 19  1  0  0  0  0
 17 20  1  0  0  0  0
 20 21  1  0  0  0  0
 21 22  1  0  0  0  0
 22 23  1  0  0  0  0
 22 66  2  0  0  0  0
 23 24  1  0  0  0  0
 23 65  1  0  0  0  0
 24 25  1  0  0  0  0
 25 26  1  0  0  0  0
 25 63  1  0  0  0  0
 26 27  1  0  0  0  0
 26 62  2  0  0  0  0
 27 28  1  0  0  0  0
 27 55  1  0  0  0  0
 28 29  1  0  0  0  0
 29 30  1  0  0  0  0
 29 54  2  0  0  0  0
 30 31  1  0  0  0  0
 30 34  1  0  0  0  0
 31 32  1  0  0  0  0
 31 33  1  0  0  0  0
 34 35  1  0  0  0  0
 34 53  1  0  0  0  0
 35 36  1  0  0  0  0
 35 52  2  0  0  0  0
 36 37  1  0  0  0  0
 36 51  1  0  0  0  0
 36 73  1  0  0  0  0
 37 38  1  0  0  0  0
 38 39  1  0  0  0  0
 39 40  1  0  0  0  0
 39 50  1  0  0  0  0
 40 41  1  0  0  0  0
 40 49  2  0  0  0  0
 41 42  1  0  0  0  0
 42 43  1  0  0  0  0
 43 44  1  0  0  0  0
 43 47  1  0  0  0  0
 43 48  1  0  0  0  0
 44 45  1  0  0  0  0
 44 46  1  0  0  0  0
 50 51  1  0  0  0  0
 55 56  1  0  0  0  0
 56 57  1  0  0  0  0
 56 61  1  0  0  0  0
 57 58  1  0  0  0  0
 58 59  1  0  0  0  0
 58 71  1  0  0  0  0
 59 60  1  0  0  0  0
 60 61  1  0  0  0  0
 63 64  1  0  0  0  0
 64 65  1  0  0  0  0
 67 68  4  0  0  0  0
 67 72  4  0  0  0  0
 68 69  4  0  0  0  0
 69 70  4  0  0  0  0
 70 71  4  0  0  0  0
 71 72  4  0  0  0  0
M  END
$$$$
