mol_bioactive_38
  PyMOL3.1          3D                             0

 73 79  0  0  0  0  0  0  0  0999 V2000
    4.7768   -3.9736    1.7592 C   0  0  0  0  0  0  0  0  0  0  0  0
    4.6361   -4.4772    3.1143 C   0  0  0  0  0  0  0  0  0  0  0  0
    3.3897   -5.0881    3.4257 O   0  0  0  0  0  0  0  0  0  0  0  0
    2.5754   -5.7580    2.5622 C   0  0  0  0  0  0  0  0  0  0  0  0
    4.8711   -3.5719    4.2399 C   0  0  0  0  0  0  0  0  0  0  0  0
    5.5834   -4.2847    5.0787 N   0  0  0  0  0  0  0  0  0  0  0  0
    6.0974   -3.7791    6.1804 C   0  0  0  0  0  0  0  0  0  0  0  0
    5.9408   -2.4525    6.5005 C   0  0  0  0  0  0  0  0  0  0  0  0
    5.1868   -1.6469    5.6502 C   0  0  0  0  0  0  0  0  0  0  0  0
    4.6364   -2.2041    4.5065 C   0  0  0  0  0  0  0  0  0  0  0  0
    3.8294   -1.3246    3.6891 C   0  0  0  0  0  0  0  0  0  0  0  0
    4.3367   -0.4882    2.7489 N   0  0  0  0  0  0  0  0  0  0  0  0
    5.7532   -0.4160    2.2814 C   0  0  0  0  0  0  0  0  0  0  0  0
    6.4664    0.7941    2.5853 C   0  0  0  0  0  0  0  0  0  0  0  0
    2.4176   -1.1983    3.7225 C   0  0  0  0  0  0  0  0  0  0  0  0
    1.3945   -2.0238    4.3857 C   0  0  0  0  0  0  0  0  0  0  0  0
    0.8728   -1.7415    5.8173 C   0  0  0  0  0  0  0  0  0  0  0  0
    1.7810   -2.3734    6.8664 C   0  0  0  0  0  0  0  0  0  0  0  0
   -0.4260   -2.4664    5.9184 C   0  0  0  0  0  0  0  0  0  0  0  0
    0.6685   -0.2619    6.1643 C   0  0  0  0  0  0  0  0  0  0  0  0
   -0.7525    0.2376    6.0866 O   0  0  0  0  0  0  0  0  0  0  0  0
   -1.3686    1.1410    6.9959 C   0  0  0  0  0  0  0  0  0  0  0  0
   -2.8289    1.5230    6.7621 C   0  0  0  0  0  0  0  0  0  0  0  0
   -3.4456    0.5946    5.8666 N   0  0  0  0  0  0  0  0  0  0  0  0
   -4.7875    0.7441    5.5583 N   0  0  0  0  0  0  0  0  0  0  0  0
   -5.2009    0.7952    4.2447 C   0  0  0  0  0  0  0  0  0  0  0  0
   -4.1662    0.7430    3.1465 C   0  0  0  0  0  0  0  0  0  0  0  0
   -4.5867   -0.0904    2.0294 N   0  0  0  0  0  0  0  0  0  0  0  0
   -4.2425   -1.3778    1.8534 C   0  0  0  0  0  0  0  0  0  0  0  0
   -4.6418   -2.0054    0.5551 C   0  0  0  0  0  0  0  0  0  0  0  0
   -5.9322   -2.8729    0.6162 C   0  0  0  0  0  0  0  0  0  0  0  0
   -6.4699   -3.2114   -0.7338 C   0  0  0  0  0  0  0  0  0  0  0  0
   -6.9778   -2.3372    1.5371 C   0  0  0  0  0  0  0  0  0  0  0  0
   -3.4587   -2.7257    0.0654 N   0  0  0  0  0  0  0  0  0  0  0  0
   -2.4871   -2.0018   -0.5935 C   0  0  0  0  0  0  0  0  0  0  0  0
   -1.1649   -2.5564   -1.0800 C   0  0  0  0  0  0  0  0  0  0  0  0
   -0.2171   -2.5632    0.1043 C   0  0  0  0  0  0  0  0  0  0  0  0
    1.1656   -3.0350   -0.2851 C   0  0  0  0  0  0  0  0  0  0  0  0
    1.6458   -2.2103   -1.4109 N   0  0  0  0  0  0  0  0  0  0  0  0
    2.8196   -1.4902   -1.3590 C   0  0  0  0  0  0  0  0  0  0  0  0
    2.9651   -0.3286   -2.1199 C   0  0  0  0  0  0  0  0  0  0  0  0
    3.1545    0.6436   -2.7533 C   0  0  0  0  0  0  0  0  0  0  0  0
    3.1249    1.8005   -3.5770 C   0  0  0  0  0  0  0  0  0  0  0  0
    2.5918    1.4594   -4.8528 N   0  0  0  0  0  0  0  0  0  0  0  0
    3.4349    1.0574   -5.8958 C   0  0  0  0  0  0  0  0  0  0  0  0
    1.2132    1.4642   -5.0872 C   0  0  0  0  0  0  0  0  0  0  0  0
    2.2740    2.8753   -2.9351 C   0  0  0  0  0  0  0  0  0  0  0  0
    4.4974    2.3840   -3.7352 C   0  0  0  0  0  0  0  0  0  0  0  0
    3.7285   -1.8231   -0.6082 O   0  0  0  0  0  0  0  0  0  0  0  0
    0.7964   -2.1537   -2.5570 C   0  0  0  0  0  0  0  0  0  0  0  0
   -0.5683   -1.6920   -2.2004 C   0  0  0  0  0  0  0  0  0  0  0  0
   -2.7094   -0.7927   -0.7733 O   0  0  0  0  0  0  0  0  0  0  0  0
   -3.2870   -4.1425    0.4145 C   0  0  0  0  0  0  0  0  0  0  0  0
   -3.5347   -1.9371    2.6696 O   0  0  0  0  0  0  0  0  0  0  0  0
   -3.9066    2.1992    2.6202 C   0  0  0  0  0  0  0  0  0  0  0  0
   -2.6199    2.6525    1.8852 C   0  0  0  0  0  0  0  0  0  0  0  0
   -1.5230    1.6984    1.9732 C   0  0  0  0  0  0  0  0  0  0  0  0
   -0.3686    1.9878    1.1739 N   0  0  0  0  0  0  0  0  0  0  0  0
   -0.4463    2.9816    0.1453 C   0  0  0  0  0  0  0  0  0  0  0  0
   -1.7930    3.4792   -0.2220 C   0  0  0  0  0  0  0  0  0  0  0  0
   -2.9395    2.9901    0.5135 O   0  0  0  0  0  0  0  0  0  0  0  0
   -6.3958    0.9387    3.9505 O   0  0  0  0  0  0  0  0  0  0  0  0
   -5.6983    0.7887    6.7006 C   0  0  0  0  0  0  0  0  0  0  0  0
   -5.1589    1.7606    7.7715 C   0  0  0  0  0  0  0  0  0  0  0  0
   -3.6753    1.5806    8.0627 C   0  0  0  0  0  0  0  0  0  0  0  0
   -0.7778    1.6449    7.9570 O   0  0  0  0  0  0  0  0  0  0  0  0
    2.1261   -0.1758    2.8066 C   0  0  0  0  0  0  0  0  0  0  0  0
    3.3203    0.2260    2.2275 C   0  0  0  0  0  0  0  0  0  0  0  0
    3.2857    1.2518    1.2247 C   0  0  0  0  0  0  0  0  0  0  0  0
    2.0416    1.7897    0.8891 C   0  0  0  0  0  0  0  0  0  0  0  0
    0.8523    1.3826    1.4968 C   0  0  0  0  0  0  0  0  0  0  0  0
    0.8859    0.3633    2.4627 C   0  0  0  0  0  0  0  0  0  0  0  0
   -1.3181   -3.8159   -1.6187 F   0  0  0  0  0  0  0  0  0  0  0  0
  1  2  1  0  0  0  0
  2  3  1  0  0  0  0
  2  5  1  0  0  0  0
  3  4  1  0  0  0  0
  5  6  4  0  0  0  0
  5 10  4  0  0  0  0
  6  7  4  0  0  0  0
  7  8  4  0  0  0  0
  8  9  4  0  0  0  0
  9 10  4  0  0  0  0
 10 11  1  0  0  0  0
 11 12  4  0  0  0  0
 11 15  4  0  0  0  0
 12 13  1  0  0  0  0
 12 68  4  0  0  0  0
 13 14  1  0  0  0  0
 15 16  1  0  0  0  0
 15 67  4  0  0  0  0
 16 17  1  0  0  0  0
 17 18  1  0  0  0  0
 17 19  1  0  0  0  0
 17 20  1  0  0  0  0
 20 21  1  0  0  0  0
 21 22  1  0  0  0  0
 22 23  1  0  0  0  0
 22 66  2  0  0  0  0
 23 24  1  0  0  0  0
 23 65  1  0  0  0  0
 24 25  1  0  0  0  0
 25 26  1  0  0  0  0
 25 63  1  0  0  0  0
 26 27  1  0  0  0  0
 26 62  2  0  0  0  0
 27 28  1  0  0  0  0
 27 55  1  0  0  0  0
 28 29  1  0  0  0  0
 29 30  1  0  0  0  0
 29 54  2  0  0  0  0
 30 31  1  0  0  0  0
 30 34  1  0  0  0  0
 31 32  1  0  0  0  0
 31 33  1  0  0  0  0
 34 35  1  0  0  0  0
 34 53  1  0  0  0  0
 35 36  1  0  0  0  0
 35 52  2  0  0  0  0
 36 37  1  0  0  0  0
 36 51  1  0  0  0  0
 36 73  1  0  0  0  0
 37 38  1  0  0  0  0
 38 39  1  0  0  0  0
 39 40  1  0  0  0  0
 39 50  1  0  0  0  0
 40 41  1  0  0  0  0
 40 49  2  0  0  0  0
 41 42  1  0  0  0  0
 42 43  1  0  0  0  0
 43 44  1  0  0  0  0
 43 47  1  0  0  0  0
 43 48  1  0  0  0  0
 44 45  1  0  0  0  0
 44 46  1  0  0  0  0
 50 51  1  0  0  0  0
 55 56  1  0  0  0  0
 56 57  1  0  0  0  0
 56 61  1  0  0  0  0
 57 58  1  0  0  0  0
 58 59  1  0  0  0  0
 58 71  1  0  0  0  0
 59 60  1  0  0  0  0
 60 61  1  0  0  0  0
 63 64  1  0  0  0  0
 64 65  1  0  0  0  0
 67 68  4  0  0  0  0
 67 72  4  0  0  0  0
 68 69  4  0  0  0  0
 69 70  4  0  0  0  0
 70 71  4  0  0  0  0
 71 72  4  0  0  0  0
M  END
$$$$
