mol_ETKDG0_346
  PyMOL3.1          3D                             0

 73 79  0  0  0  0  0  0  0  0999 V2000
    4.3498    3.6930    0.8459 C   0  0  0  0  0  0  0  0  0  0  0  0
    4.5653    2.4808    0.0158 C   0  0  0  0  0  0  0  0  0  0  0  0
    5.1308    2.7257   -1.2512 O   0  0  0  0  0  0  0  0  0  0  0  0
    4.2947    3.3321   -2.2130 C   0  0  0  0  0  0  0  0  0  0  0  0
    5.4120    1.4762    0.6919 C   0  0  0  0  0  0  0  0  0  0  0  0
    6.7105    1.7196    0.7779 N   0  0  0  0  0  0  0  0  0  0  0  0
    7.5356    0.8910    1.4467 C   0  0  0  0  0  0  0  0  0  0  0  0
    7.0581   -0.2540    2.0880 C   0  0  0  0  0  0  0  0  0  0  0  0
    5.6859   -0.5257    2.0161 C   0  0  0  0  0  0  0  0  0  0  0  0
    4.8661    0.3360    1.2757 C   0  0  0  0  0  0  0  0  0  0  0  0
    3.4587    0.0175    1.1457 C   0  0  0  0  0  0  0  0  0  0  0  0
    2.5216    0.4168    2.0442 N   0  0  0  0  0  0  0  0  0  0  0  0
    2.7344    1.2249    3.2920 C   0  0  0  0  0  0  0  0  0  0  0  0
    2.7433    0.4012    4.5091 C   0  0  0  0  0  0  0  0  0  0  0  0
    2.8463   -0.6646    0.0495 C   0  0  0  0  0  0  0  0  0  0  0  0
    3.4374   -1.2113   -1.2293 C   0  0  0  0  0  0  0  0  0  0  0  0
    3.9184   -2.7287   -1.1806 C   0  0  0  0  0  0  0  0  0  0  0  0
    4.8575   -2.9644   -2.3656 C   0  0  0  0  0  0  0  0  0  0  0  0
    4.7154   -3.0447    0.0202 C   0  0  0  0  0  0  0  0  0  0  0  0
    2.7512   -3.6810   -1.2288 C   0  0  0  0  0  0  0  0  0  0  0  0
    2.0618   -3.9204   -2.5339 O   0  0  0  0  0  0  0  0  0  0  0  0
    1.6008   -5.2103   -2.9628 C   0  0  0  0  0  0  0  0  0  0  0  0
    0.7663   -5.3067   -4.2155 C   0  0  0  0  0  0  0  0  0  0  0  0
    0.6634   -4.0320   -4.8515 N   0  0  0  0  0  0  0  0  0  0  0  0
   -0.1043   -3.9717   -6.0078 N   0  0  0  0  0  0  0  0  0  0  0  0
   -1.1411   -3.0841   -6.1192 C   0  0  0  0  0  0  0  0  0  0  0  0
   -1.4185   -2.1650   -4.9694 C   0  0  0  0  0  0  0  0  0  0  0  0
   -1.7668   -0.8353   -5.4141 N   0  0  0  0  0  0  0  0  0  0  0  0
   -0.8998    0.1932   -5.3989 C   0  0  0  0  0  0  0  0  0  0  0  0
   -1.4653    1.5313   -5.7380 C   0  0  0  0  0  0  0  0  0  0  0  0
   -1.1672    2.0266   -7.1877 C   0  0  0  0  0  0  0  0  0  0  0  0
   -2.1481    3.0415   -7.6631 C   0  0  0  0  0  0  0  0  0  0  0  0
   -0.9181    0.9359   -8.1741 C   0  0  0  0  0  0  0  0  0  0  0  0
   -0.9739    2.4686   -4.7224 N   0  0  0  0  0  0  0  0  0  0  0  0
   -1.6447    2.5510   -3.5216 C   0  0  0  0  0  0  0  0  0  0  0  0
   -1.2495    3.4325   -2.3644 C   0  0  0  0  0  0  0  0  0  0  0  0
   -2.3972    3.6915   -1.3800 C   0  0  0  0  0  0  0  0  0  0  0  0
   -1.9354    4.4881   -0.2240 C   0  0  0  0  0  0  0  0  0  0  0  0
   -0.7006    3.9500    0.3723 N   0  0  0  0  0  0  0  0  0  0  0  0
   -0.5150    3.8447    1.7117 C   0  0  0  0  0  0  0  0  0  0  0  0
   -1.5531    4.0248    2.6105 C   0  0  0  0  0  0  0  0  0  0  0  0
   -2.3279    4.2462    3.4396 C   0  0  0  0  0  0  0  0  0  0  0  0
   -3.4202    4.5278    4.2812 C   0  0  0  0  0  0  0  0  0  0  0  0
   -3.7745    5.9042    4.1163 N   0  0  0  0  0  0  0  0  0  0  0  0
   -4.8712    6.2860    3.3438 C   0  0  0  0  0  0  0  0  0  0  0  0
   -2.9624    6.9159    4.6730 C   0  0  0  0  0  0  0  0  0  0  0  0
   -3.0792    4.2623    5.7281 C   0  0  0  0  0  0  0  0  0  0  0  0
   -4.5894    3.6201    3.9407 C   0  0  0  0  0  0  0  0  0  0  0  0
    0.6192    3.5643    2.1417 O   0  0  0  0  0  0  0  0  0  0  0  0
    0.3527    3.5547   -0.5128 C   0  0  0  0  0  0  0  0  0  0  0  0
   -0.1258    2.7286   -1.6262 C   0  0  0  0  0  0  0  0  0  0  0  0
   -2.6378    1.8131   -3.3732 O   0  0  0  0  0  0  0  0  0  0  0  0
    0.2747    3.2011   -4.9803 C   0  0  0  0  0  0  0  0  0  0  0  0
    0.2436    0.0295   -5.0124 O   0  0  0  0  0  0  0  0  0  0  0  0
   -2.5782   -2.7423   -4.0605 C   0  0  0  0  0  0  0  0  0  0  0  0
   -2.8696   -1.9031   -2.7819 C   0  0  0  0  0  0  0  0  0  0  0  0
   -1.7574   -2.1420   -1.8129 C   0  0  0  0  0  0  0  0  0  0  0  0
   -1.9768   -1.4818   -0.5453 N   0  0  0  0  0  0  0  0  0  0  0  0
   -3.2799   -1.7271    0.0709 C   0  0  0  0  0  0  0  0  0  0  0  0
   -4.4140   -1.6253   -0.9650 C   0  0  0  0  0  0  0  0  0  0  0  0
   -4.1155   -2.3645   -2.1974 O   0  0  0  0  0  0  0  0  0  0  0  0
   -1.8762   -3.0506   -7.1238 O   0  0  0  0  0  0  0  0  0  0  0  0
    0.3218   -4.8577   -7.0981 C   0  0  0  0  0  0  0  0  0  0  0  0
    0.4901   -6.2894   -6.5512 C   0  0  0  0  0  0  0  0  0  0  0  0
    1.3156   -6.3312   -5.2530 C   0  0  0  0  0  0  0  0  0  0  0  0
    1.8522   -6.2874   -2.3852 O   0  0  0  0  0  0  0  0  0  0  0  0
    1.4808   -0.6700    0.3899 C   0  0  0  0  0  0  0  0  0  0  0  0
    1.3237   -0.0049    1.6078 C   0  0  0  0  0  0  0  0  0  0  0  0
    0.0072    0.1618    2.1521 C   0  0  0  0  0  0  0  0  0  0  0  0
   -1.0620   -0.3412    1.4067 C   0  0  0  0  0  0  0  0  0  0  0  0
   -0.8815   -1.0054    0.1872 C   0  0  0  0  0  0  0  0  0  0  0  0
    0.4112   -1.1797   -0.3293 C   0  0  0  0  0  0  0  0  0  0  0  0
   -0.8363    4.6675   -2.8057 F   0  0  0  0  0  0  0  0  0  0  0  0
  1  2  1  0  0  0  0
  2  3  1  0  0  0  0
  2  5  1  0  0  0  0
  3  4  1  0  0  0  0
  5  6  4  0  0  0  0
  5 10  4  0  0  0  0
  6  7  4  0  0  0  0
  7  8  4  0  0  0  0
  8  9  4  0  0  0  0
  9 10  4  0  0  0  0
 10 11  1  0  0  0  0
 11 12  4  0  0  0  0
 11 15  4  0  0  0  0
 12 13  1  0  0  0  0
 12 68  4  0  0  0  0
 13 14  1  0  0  0  0
 15 16  1  0  0  0  0
 15 67  4  0  0  0  0
 16 17  1  0  0  0  0
 17 18  1  0  0  0  0
 17 19  1  0  0  0  0
 17 20  1  0  0  0  0
 20 21  1  0  0  0  0
 21 22  1  0  0  0  0
 22 23  1  0  0  0  0
 22 66  2  0  0  0  0
 23 24  1  0  0  0  0
 23 65  1  0  0  0  0
 24 25  1  0  0  0  0
 25 26  1  0  0  0  0
 25 63  1  0  0  0  0
 26 27  1  0  0  0  0
 26 62  2  0  0  0  0
 27 28  1  0  0  0  0
 27 55  1  0  0  0  0
 28 29  1  0  0  0  0
 29 30  1  0  0  0  0
 29 54  2  0  0  0  0
 30 31  1  0  0  0  0
 30 34  1  0  0  0  0
 31 32  1  0  0  0  0
 31 33  1  0  0  0  0
 34 35  1  0  0  0  0
 34 53  1  0  0  0  0
 35 36  1  0  0  0  0
 35 52  2  0  0  0  0
 36 37  1  0  0  0  0
 36 51  1  0  0  0  0
 36 73  1  0  0  0  0
 37 38  1  0  0  0  0
 38 39  1  0  0  0  0
 39 40  1  0  0  0  0
 39 50  1  0  0  0  0
 40 41  1  0  0  0  0
 40 49  2  0  0  0  0
 41 42  1  0  0  0  0
 42 43  1  0  0  0  0
 43 44  1  0  0  0  0
 43 47  1  0  0  0  0
 43 48  1  0  0  0  0
 44 45  1  0  0  0  0
 44 46  1  0  0  0  0
 50 51  1  0  0  0  0
 55 56  1  0  0  0  0
 56 57  1  0  0  0  0
 56 61  1  0  0  0  0
 57 58  1  0  0  0  0
 58 59  1  0  0  0  0
 58 71  1  0  0  0  0
 59 60  1  0  0  0  0
 60 61  1  0  0  0  0
 63 64  1  0  0  0  0
 64 65  1  0  0  0  0
 67 68  4  0  0  0  0
 67 72  4  0  0  0  0
 68 69  4  0  0  0  0
 69 70  4  0  0  0  0
 70 71  4  0  0  0  0
 71 72  4  0  0  0  0
M  END
$$$$
