mol_ETKDG3_182
  PyMOL3.1          3D                             0

 73 79  0  0  0  0  0  0  0  0999 V2000
    5.2983    3.2538   -1.4717 C   0  0  0  0  0  0  0  0  0  0  0  0
    4.1909    3.2930   -0.4837 C   0  0  0  0  0  0  0  0  0  0  0  0
    3.4962    4.5256   -0.4137 O   0  0  0  0  0  0  0  0  0  0  0  0
    2.6672    4.8717   -1.5003 C   0  0  0  0  0  0  0  0  0  0  0  0
    4.6389    2.9677    0.8919 C   0  0  0  0  0  0  0  0  0  0  0  0
    5.3111    3.8970    1.5557 N   0  0  0  0  0  0  0  0  0  0  0  0
    5.8115    3.6566    2.7853 C   0  0  0  0  0  0  0  0  0  0  0  0
    5.6465    2.4204    3.4138 C   0  0  0  0  0  0  0  0  0  0  0  0
    4.9460    1.4184    2.7313 C   0  0  0  0  0  0  0  0  0  0  0  0
    4.4165    1.7121    1.4692 C   0  0  0  0  0  0  0  0  0  0  0  0
    3.6429    0.6852    0.8093 C   0  0  0  0  0  0  0  0  0  0  0  0
    4.1847   -0.2701    0.0056 N   0  0  0  0  0  0  0  0  0  0  0  0
    5.6305   -0.4417   -0.3858 C   0  0  0  0  0  0  0  0  0  0  0  0
    6.2926   -1.5557    0.3003 C   0  0  0  0  0  0  0  0  0  0  0  0
    2.2214    0.5707    0.8478 C   0  0  0  0  0  0  0  0  0  0  0  0
    1.1598    1.4429    1.4749 C   0  0  0  0  0  0  0  0  0  0  0  0
    0.7088    1.1535    2.9764 C   0  0  0  0  0  0  0  0  0  0  0  0
    1.7856    1.4656    3.9923 C   0  0  0  0  0  0  0  0  0  0  0  0
   -0.3927    2.1353    3.2826 C   0  0  0  0  0  0  0  0  0  0  0  0
    0.1995   -0.2734    3.2422 C   0  0  0  0  0  0  0  0  0  0  0  0
   -1.2745   -0.4883    3.0181 O   0  0  0  0  0  0  0  0  0  0  0  0
   -2.0979   -1.4009    3.7499 C   0  0  0  0  0  0  0  0  0  0  0  0
   -3.5698   -1.5282    3.3714 C   0  0  0  0  0  0  0  0  0  0  0  0
   -3.9090   -0.5159    2.4248 N   0  0  0  0  0  0  0  0  0  0  0  0
   -5.2113   -0.4386    1.9642 N   0  0  0  0  0  0  0  0  0  0  0  0
   -5.4709   -0.4326    0.6182 C   0  0  0  0  0  0  0  0  0  0  0  0
   -4.3115   -0.5665   -0.3321 C   0  0  0  0  0  0  0  0  0  0  0  0
   -4.4648    0.2790   -1.5030 N   0  0  0  0  0  0  0  0  0  0  0  0
   -3.8201    1.4539   -1.6382 C   0  0  0  0  0  0  0  0  0  0  0  0
   -3.9529    2.1400   -2.9627 C   0  0  0  0  0  0  0  0  0  0  0  0
   -4.9811    3.3151   -2.9729 C   0  0  0  0  0  0  0  0  0  0  0  0
   -5.2380    3.8589   -4.3359 C   0  0  0  0  0  0  0  0  0  0  0  0
   -6.2318    3.0212   -2.2135 C   0  0  0  0  0  0  0  0  0  0  0  0
   -2.5968    2.5739   -3.3279 N   0  0  0  0  0  0  0  0  0  0  0  0
   -1.7854    1.6919   -4.0031 C   0  0  0  0  0  0  0  0  0  0  0  0
   -0.3403    1.9434   -4.3599 C   0  0  0  0  0  0  0  0  0  0  0  0
    0.4787    1.4765   -3.1786 C   0  0  0  0  0  0  0  0  0  0  0  0
    1.9298    1.7325   -3.4181 C   0  0  0  0  0  0  0  0  0  0  0  0
    2.3189    1.0249   -4.6265 N   0  0  0  0  0  0  0  0  0  0  0  0
    3.3418    0.1293   -4.5279 C   0  0  0  0  0  0  0  0  0  0  0  0
    3.3586   -1.0560   -5.2218 C   0  0  0  0  0  0  0  0  0  0  0  0
    3.4927   -2.0860   -5.7272 C   0  0  0  0  0  0  0  0  0  0  0  0
    3.5510   -3.3323   -6.3752 C   0  0  0  0  0  0  0  0  0  0  0  0
    4.8952   -3.7382   -6.5962 N   0  0  0  0  0  0  0  0  0  0  0  0
    5.9073   -3.3551   -5.6978 C   0  0  0  0  0  0  0  0  0  0  0  0
    5.2512   -4.6837   -7.5673 C   0  0  0  0  0  0  0  0  0  0  0  0
    2.8332   -4.3723   -5.5112 C   0  0  0  0  0  0  0  0  0  0  0  0
    2.7970   -3.2272   -7.6807 C   0  0  0  0  0  0  0  0  0  0  0  0
    4.2577    0.3398   -3.7276 O   0  0  0  0  0  0  0  0  0  0  0  0
    1.5709    1.3231   -5.8305 C   0  0  0  0  0  0  0  0  0  0  0  0
    0.0983    1.1960   -5.6257 C   0  0  0  0  0  0  0  0  0  0  0  0
   -2.2697    0.5840   -4.3032 O   0  0  0  0  0  0  0  0  0  0  0  0
   -2.1144    3.8806   -2.8405 C   0  0  0  0  0  0  0  0  0  0  0  0
   -3.0821    1.8532   -0.7529 O   0  0  0  0  0  0  0  0  0  0  0  0
   -4.1503   -2.0734   -0.7914 C   0  0  0  0  0  0  0  0  0  0  0  0
   -2.9185   -2.3479   -1.7096 C   0  0  0  0  0  0  0  0  0  0  0  0
   -1.7005   -2.3476   -0.8483 C   0  0  0  0  0  0  0  0  0  0  0  0
   -0.5121   -2.7089   -1.5885 N   0  0  0  0  0  0  0  0  0  0  0  0
   -0.6062   -3.9639   -2.3456 C   0  0  0  0  0  0  0  0  0  0  0  0
   -1.9272   -4.0104   -3.1422 C   0  0  0  0  0  0  0  0  0  0  0  0
   -3.0819   -3.6624   -2.3018 O   0  0  0  0  0  0  0  0  0  0  0  0
   -6.6275   -0.3649    0.1753 O   0  0  0  0  0  0  0  0  0  0  0  0
   -6.2485   -0.2959    2.9936 C   0  0  0  0  0  0  0  0  0  0  0  0
   -6.0149   -1.3448    4.1063 C   0  0  0  0  0  0  0  0  0  0  0  0
   -4.5483   -1.4127    4.5826 C   0  0  0  0  0  0  0  0  0  0  0  0
   -1.6765   -2.1040    4.6760 O   0  0  0  0  0  0  0  0  0  0  0  0
    1.9693   -0.5463    0.0298 C   0  0  0  0  0  0  0  0  0  0  0  0
    3.1851   -1.0304   -0.4620 C   0  0  0  0  0  0  0  0  0  0  0  0
    3.1793   -2.1546   -1.3571 C   0  0  0  0  0  0  0  0  0  0  0  0
    1.9295   -2.6864   -1.7128 C   0  0  0  0  0  0  0  0  0  0  0  0
    0.7242   -2.1694   -1.2119 C   0  0  0  0  0  0  0  0  0  0  0  0
    0.7435   -1.0863   -0.3248 C   0  0  0  0  0  0  0  0  0  0  0  0
   -0.1005    3.2725   -4.6306 F   0  0  0  0  0  0  0  0  0  0  0  0
  1  2  1  0  0  0  0
  2  3  1  0  0  0  0
  2  5  1  0  0  0  0
  3  4  1  0  0  0  0
  5  6  4  0  0  0  0
  5 10  4  0  0  0  0
  6  7  4  0  0  0  0
  7  8  4  0  0  0  0
  8  9  4  0  0  0  0
  9 10  4  0  0  0  0
 10 11  1  0  0  0  0
 11 12  4  0  0  0  0
 11 15  4  0  0  0  0
 12 13  1  0  0  0  0
 12 68  4  0  0  0  0
 13 14  1  0  0  0  0
 15 16  1  0  0  0  0
 15 67  4  0  0  0  0
 16 17  1  0  0  0  0
 17 18  1  0  0  0  0
 17 19  1  0  0  0  0
 17 20  1  0  0  0  0
 20 21  1  0  0  0  0
 21 22  1  0  0  0  0
 22 23  1  0  0  0  0
 22 66  2  0  0  0  0
 23 24  1  0  0  0  0
 23 65  1  0  0  0  0
 24 25  1  0  0  0  0
 25 26  1  0  0  0  0
 25 63  1  0  0  0  0
 26 27  1  0  0  0  0
 26 62  2  0  0  0  0
 27 28  1  0  0  0  0
 27 55  1  0  0  0  0
 28 29  1  0  0  0  0
 29 30  1  0  0  0  0
 29 54  2  0  0  0  0
 30 31  1  0  0  0  0
 30 34  1  0  0  0  0
 31 32  1  0  0  0  0
 31 33  1  0  0  0  0
 34 35  1  0  0  0  0
 34 53  1  0  0  0  0
 35 36  1  0  0  0  0
 35 52  2  0  0  0  0
 36 37  1  0  0  0  0
 36 51  1  0  0  0  0
 36 73  1  0  0  0  0
 37 38  1  0  0  0  0
 38 39  1  0  0  0  0
 39 40  1  0  0  0  0
 39 50  1  0  0  0  0
 40 41  1  0  0  0  0
 40 49  2  0  0  0  0
 41 42  1  0  0  0  0
 42 43  1  0  0  0  0
 43 44  1  0  0  0  0
 43 47  1  0  0  0  0
 43 48  1  0  0  0  0
 44 45  1  0  0  0  0
 44 46  1  0  0  0  0
 50 51  1  0  0  0  0
 55 56  1  0  0  0  0
 56 57  1  0  0  0  0
 56 61  1  0  0  0  0
 57 58  1  0  0  0  0
 58 59  1  0  0  0  0
 58 71  1  0  0  0  0
 59 60  1  0  0  0  0
 60 61  1  0  0  0  0
 63 64  1  0  0  0  0
 64 65  1  0  0  0  0
 67 68  4  0  0  0  0
 67 72  4  0  0  0  0
 68 69  4  0  0  0  0
 69 70  4  0  0  0  0
 70 71  4  0  0  0  0
 71 72  4  0  0  0  0
M  END
$$$$
