mol_ETKDG0_348
  PyMOL3.1          3D                             0

 73 79  0  0  0  0  0  0  0  0999 V2000
    0.4229   -6.9128   -0.2682 C   0  0  0  0  0  0  0  0  0  0  0  0
   -0.6503   -5.8998   -0.3825 C   0  0  0  0  0  0  0  0  0  0  0  0
   -1.1536   -5.6995   -1.6967 O   0  0  0  0  0  0  0  0  0  0  0  0
   -0.3780   -4.9158   -2.5641 C   0  0  0  0  0  0  0  0  0  0  0  0
   -1.8103   -6.2022    0.4754 C   0  0  0  0  0  0  0  0  0  0  0  0
   -2.7469   -6.9951   -0.0081 N   0  0  0  0  0  0  0  0  0  0  0  0
   -3.8199   -7.3495    0.7275 C   0  0  0  0  0  0  0  0  0  0  0  0
   -3.9900   -6.8991    2.0353 C   0  0  0  0  0  0  0  0  0  0  0  0
   -3.0079   -6.0680    2.5763 C   0  0  0  0  0  0  0  0  0  0  0  0
   -1.9156   -5.7034    1.7668 C   0  0  0  0  0  0  0  0  0  0  0  0
   -0.9414   -4.8057    2.3298 C   0  0  0  0  0  0  0  0  0  0  0  0
    0.0009   -5.1926    3.2183 N   0  0  0  0  0  0  0  0  0  0  0  0
    0.2731   -6.5840    3.7095 C   0  0  0  0  0  0  0  0  0  0  0  0
   -0.0993   -6.8185    5.0914 C   0  0  0  0  0  0  0  0  0  0  0  0
   -0.7807   -3.4373    1.9980 C   0  0  0  0  0  0  0  0  0  0  0  0
   -1.4375   -2.5938    0.9413 C   0  0  0  0  0  0  0  0  0  0  0  0
   -2.8291   -1.9476    1.2893 C   0  0  0  0  0  0  0  0  0  0  0  0
   -3.3642   -1.2850    0.0286 C   0  0  0  0  0  0  0  0  0  0  0  0
   -3.8589   -2.9446    1.6505 C   0  0  0  0  0  0  0  0  0  0  0  0
   -2.6940   -0.9611    2.4017 C   0  0  0  0  0  0  0  0  0  0  0  0
   -2.1789    0.3997    2.0259 O   0  0  0  0  0  0  0  0  0  0  0  0
   -2.7536    1.6194    2.4942 C   0  0  0  0  0  0  0  0  0  0  0  0
   -2.0687    2.9280    2.1711 C   0  0  0  0  0  0  0  0  0  0  0  0
   -1.1918    2.7722    1.0531 N   0  0  0  0  0  0  0  0  0  0  0  0
   -0.5317    3.9113    0.5906 N   0  0  0  0  0  0  0  0  0  0  0  0
    0.8240    3.9533    0.4674 C   0  0  0  0  0  0  0  0  0  0  0  0
    1.6231    2.7633    0.8917 C   0  0  0  0  0  0  0  0  0  0  0  0
    2.7303    2.5150   -0.0002 N   0  0  0  0  0  0  0  0  0  0  0  0
    2.7417    1.5138   -0.8819 C   0  0  0  0  0  0  0  0  0  0  0  0
    4.0236    1.2968   -1.6054 C   0  0  0  0  0  0  0  0  0  0  0  0
    4.0188    1.8378   -3.0723 C   0  0  0  0  0  0  0  0  0  0  0  0
    5.3637    1.7995   -3.7065 C   0  0  0  0  0  0  0  0  0  0  0  0
    3.3693    3.1812   -3.1919 C   0  0  0  0  0  0  0  0  0  0  0  0
    4.2954   -0.1398   -1.5251 N   0  0  0  0  0  0  0  0  0  0  0  0
    4.8741   -0.6347   -0.3728 C   0  0  0  0  0  0  0  0  0  0  0  0
    5.1388   -2.0921   -0.1159 C   0  0  0  0  0  0  0  0  0  0  0  0
    6.0680   -2.3641    1.0734 C   0  0  0  0  0  0  0  0  0  0  0  0
    6.2038   -3.8180    1.3253 C   0  0  0  0  0  0  0  0  0  0  0  0
    4.8952   -4.5000    1.3637 N   0  0  0  0  0  0  0  0  0  0  0  0
    4.5561   -5.4539    2.2615 C   0  0  0  0  0  0  0  0  0  0  0  0
    5.3916   -5.8433    3.2757 C   0  0  0  0  0  0  0  0  0  0  0  0
    5.9860   -6.3332    4.1366 C   0  0  0  0  0  0  0  0  0  0  0  0
    6.8036   -6.8351    5.1456 C   0  0  0  0  0  0  0  0  0  0  0  0
    6.3571   -8.0947    5.6450 N   0  0  0  0  0  0  0  0  0  0  0  0
    7.1347   -8.8486    6.5215 C   0  0  0  0  0  0  0  0  0  0  0  0
    5.1147   -8.6433    5.2829 C   0  0  0  0  0  0  0  0  0  0  0  0
    6.8592   -5.8309    6.2919 C   0  0  0  0  0  0  0  0  0  0  0  0
    8.2082   -6.9759    4.5904 C   0  0  0  0  0  0  0  0  0  0  0  0
    3.4439   -6.0036    2.1709 O   0  0  0  0  0  0  0  0  0  0  0  0
    3.9377   -4.1618    0.3744 C   0  0  0  0  0  0  0  0  0  0  0  0
    3.7940   -2.7277    0.1821 C   0  0  0  0  0  0  0  0  0  0  0  0
    5.1688    0.1775    0.5251 O   0  0  0  0  0  0  0  0  0  0  0  0
    3.8193   -1.0110   -2.6115 C   0  0  0  0  0  0  0  0  0  0  0  0
    1.7854    0.7592   -0.9792 O   0  0  0  0  0  0  0  0  0  0  0  0
    2.1817    2.9901    2.3504 C   0  0  0  0  0  0  0  0  0  0  0  0
    2.9654    1.7830    2.9121 C   0  0  0  0  0  0  0  0  0  0  0  0
    1.9668    0.7506    3.2756 C   0  0  0  0  0  0  0  0  0  0  0  0
    2.5854   -0.3850    3.9018 N   0  0  0  0  0  0  0  0  0  0  0  0
    3.4477   -0.0588    5.0495 C   0  0  0  0  0  0  0  0  0  0  0  0
    4.3943    1.0991    4.7034 C   0  0  0  0  0  0  0  0  0  0  0  0
    3.6661    2.2231    4.1038 O   0  0  0  0  0  0  0  0  0  0  0  0
    1.4150    4.9670    0.0574 O   0  0  0  0  0  0  0  0  0  0  0  0
   -1.3955    5.0192    0.1930 C   0  0  0  0  0  0  0  0  0  0  0  0
   -2.3776    5.3204    1.3413 C   0  0  0  0  0  0  0  0  0  0  0  0
   -3.0912    4.0574    1.8293 C   0  0  0  0  0  0  0  0  0  0  0  0
   -3.8157    1.7003    3.1605 O   0  0  0  0  0  0  0  0  0  0  0  0
    0.2774   -3.0173    2.8173 C   0  0  0  0  0  0  0  0  0  0  0  0
    0.7311   -4.1173    3.5358 C   0  0  0  0  0  0  0  0  0  0  0  0
    1.8490   -3.9744    4.4192 C   0  0  0  0  0  0  0  0  0  0  0  0
    2.4383   -2.7204    4.5009 C   0  0  0  0  0  0  0  0  0  0  0  0
    1.9698   -1.6272    3.7800 C   0  0  0  0  0  0  0  0  0  0  0  0
    0.8723   -1.7691    2.9055 C   0  0  0  0  0  0  0  0  0  0  0  0
    5.7266   -2.6767   -1.2171 F   0  0  0  0  0  0  0  0  0  0  0  0
  1  2  1  0  0  0  0
  2  3  1  0  0  0  0
  2  5  1  0  0  0  0
  3  4  1  0  0  0  0
  5  6  4  0  0  0  0
  5 10  4  0  0  0  0
  6  7  4  0  0  0  0
  7  8  4  0  0  0  0
  8  9  4  0  0  0  0
  9 10  4  0  0  0  0
 10 11  1  0  0  0  0
 11 12  4  0  0  0  0
 11 15  4  0  0  0  0
 12 13  1  0  0  0  0
 12 68  4  0  0  0  0
 13 14  1  0  0  0  0
 15 16  1  0  0  0  0
 15 67  4  0  0  0  0
 16 17  1  0  0  0  0
 17 18  1  0  0  0  0
 17 19  1  0  0  0  0
 17 20  1  0  0  0  0
 20 21  1  0  0  0  0
 21 22  1  0  0  0  0
 22 23  1  0  0  0  0
 22 66  2  0  0  0  0
 23 24  1  0  0  0  0
 23 65  1  0  0  0  0
 24 25  1  0  0  0  0
 25 26  1  0  0  0  0
 25 63  1  0  0  0  0
 26 27  1  0  0  0  0
 26 62  2  0  0  0  0
 27 28  1  0  0  0  0
 27 55  1  0  0  0  0
 28 29  1  0  0  0  0
 29 30  1  0  0  0  0
 29 54  2  0  0  0  0
 30 31  1  0  0  0  0
 30 34  1  0  0  0  0
 31 32  1  0  0  0  0
 31 33  1  0  0  0  0
 34 35  1  0  0  0  0
 34 53  1  0  0  0  0
 35 36  1  0  0  0  0
 35 52  2  0  0  0  0
 36 37  1  0  0  0  0
 36 51  1  0  0  0  0
 36 73  1  0  0  0  0
 37 38  1  0  0  0  0
 38 39  1  0  0  0  0
 39 40  1  0  0  0  0
 39 50  1  0  0  0  0
 40 41  1  0  0  0  0
 40 49  2  0  0  0  0
 41 42  1  0  0  0  0
 42 43  1  0  0  0  0
 43 44  1  0  0  0  0
 43 47  1  0  0  0  0
 43 48  1  0  0  0  0
 44 45  1  0  0  0  0
 44 46  1  0  0  0  0
 50 51  1  0  0  0  0
 55 56  1  0  0  0  0
 56 57  1  0  0  0  0
 56 61  1  0  0  0  0
 57 58  1  0  0  0  0
 58 59  1  0  0  0  0
 58 71  1  0  0  0  0
 59 60  1  0  0  0  0
 60 61  1  0  0  0  0
 63 64  1  0  0  0  0
 64 65  1  0  0  0  0
 67 68  4  0  0  0  0
 67 72  4  0  0  0  0
 68 69  4  0  0  0  0
 69 70  4  0  0  0  0
 70 71  4  0  0  0  0
 71 72  4  0  0  0  0
M  END
$$$$
