mol_ETKDG5_254
  PyMOL3.1          3D                             0

 73 79  0  0  0  0  0  0  0  0999 V2000
   -1.9725   -2.6917    0.9301 C   0  0  0  0  0  0  0  0  0  0  0  0
   -1.0386   -3.7480    0.5244 C   0  0  0  0  0  0  0  0  0  0  0  0
   -1.6581   -4.8168   -0.2209 O   0  0  0  0  0  0  0  0  0  0  0  0
   -1.6333   -4.7121   -1.6108 C   0  0  0  0  0  0  0  0  0  0  0  0
   -0.3426   -4.3581    1.6762 C   0  0  0  0  0  0  0  0  0  0  0  0
   -1.0019   -5.2516    2.3874 N   0  0  0  0  0  0  0  0  0  0  0  0
   -0.4247   -5.8968    3.4215 C   0  0  0  0  0  0  0  0  0  0  0  0
    0.8860   -5.6218    3.8096 C   0  0  0  0  0  0  0  0  0  0  0  0
    1.6037   -4.6749    3.0745 C   0  0  0  0  0  0  0  0  0  0  0  0
    0.9598   -4.0052    2.0234 C   0  0  0  0  0  0  0  0  0  0  0  0
    1.6896   -2.9776    1.3188 C   0  0  0  0  0  0  0  0  0  0  0  0
    2.3874   -3.2086    0.1839 N   0  0  0  0  0  0  0  0  0  0  0  0
    2.5125   -4.5133   -0.5594 C   0  0  0  0  0  0  0  0  0  0  0  0
    3.8273   -5.1467   -0.4067 C   0  0  0  0  0  0  0  0  0  0  0  0
    1.7215   -1.5929    1.6501 C   0  0  0  0  0  0  0  0  0  0  0  0
    0.9920   -0.8076    2.7131 C   0  0  0  0  0  0  0  0  0  0  0  0
    1.7057   -0.6304    4.1130 C   0  0  0  0  0  0  0  0  0  0  0  0
    0.7305    0.0817    5.0439 C   0  0  0  0  0  0  0  0  0  0  0  0
    1.9971   -1.9068    4.7926 C   0  0  0  0  0  0  0  0  0  0  0  0
    2.9816    0.1562    3.9655 C   0  0  0  0  0  0  0  0  0  0  0  0
    2.8615    1.6456    4.0021 O   0  0  0  0  0  0  0  0  0  0  0  0
    3.6323    2.4860    4.8564 C   0  0  0  0  0  0  0  0  0  0  0  0
    3.4993    3.9821    4.7147 C   0  0  0  0  0  0  0  0  0  0  0  0
    2.3144    4.3209    3.9907 N   0  0  0  0  0  0  0  0  0  0  0  0
    2.0428    5.6784    3.8155 N   0  0  0  0  0  0  0  0  0  0  0  0
    1.8356    6.2060    2.5725 C   0  0  0  0  0  0  0  0  0  0  0  0
    1.8650    5.2914    1.3779 C   0  0  0  0  0  0  0  0  0  0  0  0
    0.8755    5.6700    0.3991 N   0  0  0  0  0  0  0  0  0  0  0  0
   -0.2919    5.0430    0.2355 C   0  0  0  0  0  0  0  0  0  0  0  0
   -1.1179    5.5098   -0.9125 C   0  0  0  0  0  0  0  0  0  0  0  0
   -2.3401    6.4055   -0.5267 C   0  0  0  0  0  0  0  0  0  0  0  0
   -2.0932    7.2520    0.6570 C   0  0  0  0  0  0  0  0  0  0  0  0
   -2.8293    7.2022   -1.7110 C   0  0  0  0  0  0  0  0  0  0  0  0
   -1.4891    4.3243   -1.6749 N   0  0  0  0  0  0  0  0  0  0  0  0
   -0.5896    3.8277   -2.5838 C   0  0  0  0  0  0  0  0  0  0  0  0
   -0.8100    2.6420   -3.4775 C   0  0  0  0  0  0  0  0  0  0  0  0
    0.1499    1.5346   -3.0838 C   0  0  0  0  0  0  0  0  0  0  0  0
   -0.0623    0.3474   -3.9437 C   0  0  0  0  0  0  0  0  0  0  0  0
    0.0560    0.7468   -5.3458 N   0  0  0  0  0  0  0  0  0  0  0  0
    0.8882    0.0639   -6.1681 C   0  0  0  0  0  0  0  0  0  0  0  0
    1.3009    0.5680   -7.3991 C   0  0  0  0  0  0  0  0  0  0  0  0
    1.6953    0.7793   -8.4597 C   0  0  0  0  0  0  0  0  0  0  0  0
    2.1237    1.1968   -9.7357 C   0  0  0  0  0  0  0  0  0  0  0  0
    1.9552    0.1175  -10.6854 N   0  0  0  0  0  0  0  0  0  0  0  0
    2.8789   -0.9563  -10.6394 C   0  0  0  0  0  0  0  0  0  0  0  0
    0.6400   -0.1991  -11.1295 C   0  0  0  0  0  0  0  0  0  0  0  0
    3.5806    1.6107   -9.6560 C   0  0  0  0  0  0  0  0  0  0  0  0
    1.3515    2.4112  -10.1831 C   0  0  0  0  0  0  0  0  0  0  0  0
    1.3305   -1.0195   -5.8084 O   0  0  0  0  0  0  0  0  0  0  0  0
   -0.7373    1.8640   -5.7921 C   0  0  0  0  0  0  0  0  0  0  0  0
   -0.6012    3.0393   -4.9354 C   0  0  0  0  0  0  0  0  0  0  0  0
    0.5063    4.4108   -2.6862 O   0  0  0  0  0  0  0  0  0  0  0  0
   -2.7509    3.6575   -1.3509 C   0  0  0  0  0  0  0  0  0  0  0  0
   -0.5641    4.0648    0.9076 O   0  0  0  0  0  0  0  0  0  0  0  0
    3.2936    5.3310    0.7067 C   0  0  0  0  0  0  0  0  0  0  0  0
    3.5001    4.3370   -0.4661 C   0  0  0  0  0  0  0  0  0  0  0  0
    3.6795    2.9739    0.1179 C   0  0  0  0  0  0  0  0  0  0  0  0
    4.0307    1.9789   -0.8750 N   0  0  0  0  0  0  0  0  0  0  0  0
    5.1470    2.3382   -1.7488 C   0  0  0  0  0  0  0  0  0  0  0  0
    5.0111    3.7825   -2.2474 C   0  0  0  0  0  0  0  0  0  0  0  0
    4.7168    4.7194   -1.1559 O   0  0  0  0  0  0  0  0  0  0  0  0
    1.6691    7.4270    2.4020 O   0  0  0  0  0  0  0  0  0  0  0  0
    1.9409    6.4639    5.0409 C   0  0  0  0  0  0  0  0  0  0  0  0
    3.1779    6.2003    5.9207 C   0  0  0  0  0  0  0  0  0  0  0  0
    3.4559    4.7049    6.0901 C   0  0  0  0  0  0  0  0  0  0  0  0
    4.4385    2.0771    5.7352 O   0  0  0  0  0  0  0  0  0  0  0  0
    2.5432   -1.0342    0.6474 C   0  0  0  0  0  0  0  0  0  0  0  0
    2.9180   -2.0470   -0.2272 C   0  0  0  0  0  0  0  0  0  0  0  0
    3.7208   -1.7183   -1.3727 C   0  0  0  0  0  0  0  0  0  0  0  0
    4.0712   -0.3723   -1.5597 C   0  0  0  0  0  0  0  0  0  0  0  0
    3.6773    0.6352   -0.6617 C   0  0  0  0  0  0  0  0  0  0  0  0
    2.9090    0.2957    0.4627 C   0  0  0  0  0  0  0  0  0  0  0  0
   -2.0674    2.1343   -3.4078 F   0  0  0  0  0  0  0  0  0  0  0  0
  1  2  1  0  0  0  0
  2  3  1  0  0  0  0
  2  5  1  0  0  0  0
  3  4  1  0  0  0  0
  5  6  4  0  0  0  0
  5 10  4  0  0  0  0
  6  7  4  0  0  0  0
  7  8  4  0  0  0  0
  8  9  4  0  0  0  0
  9 10  4  0  0  0  0
 10 11  1  0  0  0  0
 11 12  4  0  0  0  0
 11 15  4  0  0  0  0
 12 13  1  0  0  0  0
 12 68  4  0  0  0  0
 13 14  1  0  0  0  0
 15 16  1  0  0  0  0
 15 67  4  0  0  0  0
 16 17  1  0  0  0  0
 17 18  1  0  0  0  0
 17 19  1  0  0  0  0
 17 20  1  0  0  0  0
 20 21  1  0  0  0  0
 21 22  1  0  0  0  0
 22 23  1  0  0  0  0
 22 66  2  0  0  0  0
 23 24  1  0  0  0  0
 23 65  1  0  0  0  0
 24 25  1  0  0  0  0
 25 26  1  0  0  0  0
 25 63  1  0  0  0  0
 26 27  1  0  0  0  0
 26 62  2  0  0  0  0
 27 28  1  0  0  0  0
 27 55  1  0  0  0  0
 28 29  1  0  0  0  0
 29 30  1  0  0  0  0
 29 54  2  0  0  0  0
 30 31  1  0  0  0  0
 30 34  1  0  0  0  0
 31 32  1  0  0  0  0
 31 33  1  0  0  0  0
 34 35  1  0  0  0  0
 34 53  1  0  0  0  0
 35 36  1  0  0  0  0
 35 52  2  0  0  0  0
 36 37  1  0  0  0  0
 36 51  1  0  0  0  0
 36 73  1  0  0  0  0
 37 38  1  0  0  0  0
 38 39  1  0  0  0  0
 39 40  1  0  0  0  0
 39 50  1  0  0  0  0
 40 41  1  0  0  0  0
 40 49  2  0  0  0  0
 41 42  1  0  0  0  0
 42 43  1  0  0  0  0
 43 44  1  0  0  0  0
 43 47  1  0  0  0  0
 43 48  1  0  0  0  0
 44 45  1  0  0  0  0
 44 46  1  0  0  0  0
 50 51  1  0  0  0  0
 55 56  1  0  0  0  0
 56 57  1  0  0  0  0
 56 61  1  0  0  0  0
 57 58  1  0  0  0  0
 58 59  1  0  0  0  0
 58 71  1  0  0  0  0
 59 60  1  0  0  0  0
 60 61  1  0  0  0  0
 63 64  1  0  0  0  0
 64 65  1  0  0  0  0
 67 68  4  0  0  0  0
 67 72  4  0  0  0  0
 68 69  4  0  0  0  0
 69 70  4  0  0  0  0
 70 71  4  0  0  0  0
 71 72  4  0  0  0  0
M  END
$$$$
