mol_ETKDG1_58
  PyMOL3.1          3D                             0

 73 79  0  0  0  0  0  0  0  0999 V2000
    3.0517    2.9766   -2.4082 C   0  0  0  0  0  0  0  0  0  0  0  0
    2.7817    3.6451   -1.1150 C   0  0  0  0  0  0  0  0  0  0  0  0
    3.8427    4.3982   -0.5749 O   0  0  0  0  0  0  0  0  0  0  0  0
    4.9186    3.7050    0.0043 C   0  0  0  0  0  0  0  0  0  0  0  0
    1.6017    4.5241   -1.1545 C   0  0  0  0  0  0  0  0  0  0  0  0
    1.7251    5.7131   -1.7219 N   0  0  0  0  0  0  0  0  0  0  0  0
    0.6696    6.5560   -1.8337 C   0  0  0  0  0  0  0  0  0  0  0  0
   -0.6014    6.2059   -1.3628 C   0  0  0  0  0  0  0  0  0  0  0  0
   -0.7582    4.9471   -0.7703 C   0  0  0  0  0  0  0  0  0  0  0  0
    0.3776    4.1169   -0.6499 C   0  0  0  0  0  0  0  0  0  0  0  0
    0.2162    2.8400    0.0134 C   0  0  0  0  0  0  0  0  0  0  0  0
   -0.3045    1.7390   -0.5922 N   0  0  0  0  0  0  0  0  0  0  0  0
   -0.7425    1.6021   -2.0243 C   0  0  0  0  0  0  0  0  0  0  0  0
   -2.2043    1.5447   -2.1827 C   0  0  0  0  0  0  0  0  0  0  0  0
    0.6216    2.5317    1.3415 C   0  0  0  0  0  0  0  0  0  0  0  0
    1.4200    3.3302    2.3379 C   0  0  0  0  0  0  0  0  0  0  0  0
    0.6043    4.2507    3.3454 C   0  0  0  0  0  0  0  0  0  0  0  0
   -0.2673    5.2724    2.6519 C   0  0  0  0  0  0  0  0  0  0  0  0
    1.6082    5.0592    4.1346 C   0  0  0  0  0  0  0  0  0  0  0  0
   -0.2691    3.4032    4.2680 C   0  0  0  0  0  0  0  0  0  0  0  0
    0.4901    2.7981    5.4439 O   0  0  0  0  0  0  0  0  0  0  0  0
    0.1324    2.9930    6.8246 C   0  0  0  0  0  0  0  0  0  0  0  0
    0.9321    2.3164    7.9319 C   0  0  0  0  0  0  0  0  0  0  0  0
    2.1769    1.7996    7.4388 N   0  0  0  0  0  0  0  0  0  0  0  0
    3.0101    1.1592    8.3647 N   0  0  0  0  0  0  0  0  0  0  0  0
    3.4711   -0.1173    8.1423 C   0  0  0  0  0  0  0  0  0  0  0  0
    3.1489   -0.7829    6.8337 C   0  0  0  0  0  0  0  0  0  0  0  0
    4.2615   -1.5598    6.3354 N   0  0  0  0  0  0  0  0  0  0  0  0
    5.0754   -1.1449    5.3467 C   0  0  0  0  0  0  0  0  0  0  0  0
    6.0817   -2.1351    4.8513 C   0  0  0  0  0  0  0  0  0  0  0  0
    7.4981   -2.0360    5.4605 C   0  0  0  0  0  0  0  0  0  0  0  0
    8.2575   -3.3171    5.4269 C   0  0  0  0  0  0  0  0  0  0  0  0
    7.6183   -1.2634    6.7193 C   0  0  0  0  0  0  0  0  0  0  0  0
    6.1286   -2.0298    3.3953 N   0  0  0  0  0  0  0  0  0  0  0  0
    5.1832   -2.7020    2.6569 C   0  0  0  0  0  0  0  0  0  0  0  0
    5.0800   -2.6761    1.1500 C   0  0  0  0  0  0  0  0  0  0  0  0
    4.2622   -3.8542    0.5937 C   0  0  0  0  0  0  0  0  0  0  0  0
    4.0549   -3.7174   -0.8896 C   0  0  0  0  0  0  0  0  0  0  0  0
    3.5097   -2.3768   -1.1998 N   0  0  0  0  0  0  0  0  0  0  0  0
    2.3466   -2.1625   -1.8973 C   0  0  0  0  0  0  0  0  0  0  0  0
    1.4516   -3.1771   -2.1669 C   0  0  0  0  0  0  0  0  0  0  0  0
    0.6493   -3.9469   -2.4869 C   0  0  0  0  0  0  0  0  0  0  0  0
   -0.2468   -5.0052   -2.7412 C   0  0  0  0  0  0  0  0  0  0  0  0
   -0.8780   -4.8454   -4.0141 N   0  0  0  0  0  0  0  0  0  0  0  0
   -0.2629   -5.3448   -5.1810 C   0  0  0  0  0  0  0  0  0  0  0  0
   -1.9329   -3.9243   -4.1846 C   0  0  0  0  0  0  0  0  0  0  0  0
   -1.2876   -5.0768   -1.6408 C   0  0  0  0  0  0  0  0  0  0  0  0
    0.5033   -6.3326   -2.6918 C   0  0  0  0  0  0  0  0  0  0  0  0
    2.0461   -1.0090   -2.2619 O   0  0  0  0  0  0  0  0  0  0  0  0
    4.2446   -1.2553   -0.6950 C   0  0  0  0  0  0  0  0  0  0  0  0
    4.3860   -1.3676    0.7884 C   0  0  0  0  0  0  0  0  0  0  0  0
    4.3327   -3.3623    3.2910 O   0  0  0  0  0  0  0  0  0  0  0  0
    7.1176   -1.1252    2.7754 C   0  0  0  0  0  0  0  0  0  0  0  0
    4.8906   -0.0581    4.8166 O   0  0  0  0  0  0  0  0  0  0  0  0
    1.8793   -1.7186    6.9772 C   0  0  0  0  0  0  0  0  0  0  0  0
    1.3958   -2.3706    5.6435 C   0  0  0  0  0  0  0  0  0  0  0  0
    0.7027   -1.3073    4.8478 C   0  0  0  0  0  0  0  0  0  0  0  0
    0.0918   -1.8225    3.6402 N   0  0  0  0  0  0  0  0  0  0  0  0
   -0.7606   -3.0035    3.8247 C   0  0  0  0  0  0  0  0  0  0  0  0
   -0.0836   -4.0400    4.7460 C   0  0  0  0  0  0  0  0  0  0  0  0
    0.4469   -3.4163    5.9737 O   0  0  0  0  0  0  0  0  0  0  0  0
    4.1227   -0.7338    9.0041 O   0  0  0  0  0  0  0  0  0  0  0  0
    3.3903    1.9550    9.5316 C   0  0  0  0  0  0  0  0  0  0  0  0
    2.1285    2.5806   10.1676 C   0  0  0  0  0  0  0  0  0  0  0  0
    1.2163    3.2593    9.1336 C   0  0  0  0  0  0  0  0  0  0  0  0
   -0.8451    3.6809    7.1850 O   0  0  0  0  0  0  0  0  0  0  0  0
    0.2281    1.1869    1.5076 C   0  0  0  0  0  0  0  0  0  0  0  0
   -0.3122    0.7376    0.3054 C   0  0  0  0  0  0  0  0  0  0  0  0
   -0.7398   -0.6378    0.1910 C   0  0  0  0  0  0  0  0  0  0  0  0
   -0.5866   -1.4581    1.3185 C   0  0  0  0  0  0  0  0  0  0  0  0
   -0.0476   -0.9790    2.5254 C   0  0  0  0  0  0  0  0  0  0  0  0
    0.3729    0.3605    2.6172 C   0  0  0  0  0  0  0  0  0  0  0  0
    6.3232   -2.7508    0.5512 F   0  0  0  0  0  0  0  0  0  0  0  0
  1  2  1  0  0  0  0
  2  3  1  0  0  0  0
  2  5  1  0  0  0  0
  3  4  1  0  0  0  0
  5  6  4  0  0  0  0
  5 10  4  0  0  0  0
  6  7  4  0  0  0  0
  7  8  4  0  0  0  0
  8  9  4  0  0  0  0
  9 10  4  0  0  0  0
 10 11  1  0  0  0  0
 11 12  4  0  0  0  0
 11 15  4  0  0  0  0
 12 13  1  0  0  0  0
 12 68  4  0  0  0  0
 13 14  1  0  0  0  0
 15 16  1  0  0  0  0
 15 67  4  0  0  0  0
 16 17  1  0  0  0  0
 17 18  1  0  0  0  0
 17 19  1  0  0  0  0
 17 20  1  0  0  0  0
 20 21  1  0  0  0  0
 21 22  1  0  0  0  0
 22 23  1  0  0  0  0
 22 66  2  0  0  0  0
 23 24  1  0  0  0  0
 23 65  1  0  0  0  0
 24 25  1  0  0  0  0
 25 26  1  0  0  0  0
 25 63  1  0  0  0  0
 26 27  1  0  0  0  0
 26 62  2  0  0  0  0
 27 28  1  0  0  0  0
 27 55  1  0  0  0  0
 28 29  1  0  0  0  0
 29 30  1  0  0  0  0
 29 54  2  0  0  0  0
 30 31  1  0  0  0  0
 30 34  1  0  0  0  0
 31 32  1  0  0  0  0
 31 33  1  0  0  0  0
 34 35  1  0  0  0  0
 34 53  1  0  0  0  0
 35 36  1  0  0  0  0
 35 52  2  0  0  0  0
 36 37  1  0  0  0  0
 36 51  1  0  0  0  0
 36 73  1  0  0  0  0
 37 38  1  0  0  0  0
 38 39  1  0  0  0  0
 39 40  1  0  0  0  0
 39 50  1  0  0  0  0
 40 41  1  0  0  0  0
 40 49  2  0  0  0  0
 41 42  1  0  0  0  0
 42 43  1  0  0  0  0
 43 44  1  0  0  0  0
 43 47  1  0  0  0  0
 43 48  1  0  0  0  0
 44 45  1  0  0  0  0
 44 46  1  0  0  0  0
 50 51  1  0  0  0  0
 55 56  1  0  0  0  0
 56 57  1  0  0  0  0
 56 61  1  0  0  0  0
 57 58  1  0  0  0  0
 58 59  1  0  0  0  0
 58 71  1  0  0  0  0
 59 60  1  0  0  0  0
 60 61  1  0  0  0  0
 63 64  1  0  0  0  0
 64 65  1  0  0  0  0
 67 68  4  0  0  0  0
 67 72  4  0  0  0  0
 68 69  4  0  0  0  0
 69 70  4  0  0  0  0
 70 71  4  0  0  0  0
 71 72  4  0  0  0  0
M  END
$$$$
