mol_ETKDG4_212
  PyMOL3.1          3D                             0

 73 79  0  0  0  0  0  0  0  0999 V2000
    5.0443    2.7982   -3.6809 C   0  0  0  0  0  0  0  0  0  0  0  0
    4.7277    1.7134   -2.7165 C   0  0  0  0  0  0  0  0  0  0  0  0
    4.4384    0.4651   -3.3120 O   0  0  0  0  0  0  0  0  0  0  0  0
    3.1618    0.3186   -3.8859 C   0  0  0  0  0  0  0  0  0  0  0  0
    5.8114    1.4929   -1.7416 C   0  0  0  0  0  0  0  0  0  0  0  0
    6.9166    0.9111   -2.1680 N   0  0  0  0  0  0  0  0  0  0  0  0
    7.9746    0.7348   -1.3480 C   0  0  0  0  0  0  0  0  0  0  0  0
    7.9523    1.1755   -0.0214 C   0  0  0  0  0  0  0  0  0  0  0  0
    6.7944    1.8039    0.4453 C   0  0  0  0  0  0  0  0  0  0  0  0
    5.7060    1.9315   -0.4215 C   0  0  0  0  0  0  0  0  0  0  0  0
    4.4989    2.5403    0.0858 C   0  0  0  0  0  0  0  0  0  0  0  0
    4.2983    3.8815    0.1047 N   0  0  0  0  0  0  0  0  0  0  0  0
    5.2199    4.9534   -0.4000 C   0  0  0  0  0  0  0  0  0  0  0  0
    5.8416    5.7447    0.6576 C   0  0  0  0  0  0  0  0  0  0  0  0
    3.3464    1.8509    0.5584 C   0  0  0  0  0  0  0  0  0  0  0  0
    3.0114    0.3797    0.6020 C   0  0  0  0  0  0  0  0  0  0  0  0
    3.4022   -0.4363    1.9088 C   0  0  0  0  0  0  0  0  0  0  0  0
    3.1258   -1.9084    1.6338 C   0  0  0  0  0  0  0  0  0  0  0  0
    4.8528   -0.3691    2.2006 C   0  0  0  0  0  0  0  0  0  0  0  0
    2.6249    0.0157    3.1221 C   0  0  0  0  0  0  0  0  0  0  0  0
    1.1961   -0.4739    3.2523 O   0  0  0  0  0  0  0  0  0  0  0  0
    0.5968   -0.8951    4.4923 C   0  0  0  0  0  0  0  0  0  0  0  0
   -0.8778   -1.2706    4.5335 C   0  0  0  0  0  0  0  0  0  0  0  0
   -1.3888   -1.4706    3.2173 N   0  0  0  0  0  0  0  0  0  0  0  0
   -2.7221   -1.8707    3.0878 N   0  0  0  0  0  0  0  0  0  0  0  0
   -3.5975   -1.1665    2.3042 C   0  0  0  0  0  0  0  0  0  0  0  0
   -3.1170    0.0915    1.6481 C   0  0  0  0  0  0  0  0  0  0  0  0
   -3.7263    0.3157    0.3512 N   0  0  0  0  0  0  0  0  0  0  0  0
   -3.1031    0.0814   -0.8085 C   0  0  0  0  0  0  0  0  0  0  0  0
   -3.8072    0.5166   -2.0570 C   0  0  0  0  0  0  0  0  0  0  0  0
   -4.5203   -0.6524   -2.8177 C   0  0  0  0  0  0  0  0  0  0  0  0
   -5.3768   -0.1728   -3.9434 C   0  0  0  0  0  0  0  0  0  0  0  0
   -5.2463   -1.5877   -1.9000 C   0  0  0  0  0  0  0  0  0  0  0  0
   -2.7961    1.1931   -2.8793 N   0  0  0  0  0  0  0  0  0  0  0  0
   -2.5534    2.5383   -2.6727 C   0  0  0  0  0  0  0  0  0  0  0  0
   -1.4793    3.3380   -3.3730 C   0  0  0  0  0  0  0  0  0  0  0  0
   -0.1927    3.0587   -2.6467 C   0  0  0  0  0  0  0  0  0  0  0  0
    0.9404    3.7193   -3.3078 C   0  0  0  0  0  0  0  0  0  0  0  0
    0.7096    5.1550   -3.4156 N   0  0  0  0  0  0  0  0  0  0  0  0
    1.7042    6.0020   -3.0102 C   0  0  0  0  0  0  0  0  0  0  0  0
    1.5352    7.3712   -2.8282 C   0  0  0  0  0  0  0  0  0  0  0  0
    1.5888    8.5093   -2.6015 C   0  0  0  0  0  0  0  0  0  0  0  0
    1.4192    9.8621   -2.2842 C   0  0  0  0  0  0  0  0  0  0  0  0
    0.8974    9.9561   -0.9847 N   0  0  0  0  0  0  0  0  0  0  0  0
   -0.3267   10.5493   -0.7107 C   0  0  0  0  0  0  0  0  0  0  0  0
    1.6886    9.5416    0.1084 C   0  0  0  0  0  0  0  0  0  0  0  0
    0.5001   10.4849   -3.3304 C   0  0  0  0  0  0  0  0  0  0  0  0
    2.7251   10.6431   -2.3333 C   0  0  0  0  0  0  0  0  0  0  0  0
    2.8210    5.5347   -2.7681 O   0  0  0  0  0  0  0  0  0  0  0  0
   -0.5576    5.5741   -3.9670 C   0  0  0  0  0  0  0  0  0  0  0  0
   -1.7166    4.8587   -3.3769 C   0  0  0  0  0  0  0  0  0  0  0  0
   -3.2423    3.1221   -1.8136 O   0  0  0  0  0  0  0  0  0  0  0  0
   -1.9861    0.3857   -3.8092 C   0  0  0  0  0  0  0  0  0  0  0  0
   -1.9719   -0.3611   -0.8048 O   0  0  0  0  0  0  0  0  0  0  0  0
   -3.4548    1.3156    2.5804 C   0  0  0  0  0  0  0  0  0  0  0  0
   -2.9144    2.6754    2.0813 C   0  0  0  0  0  0  0  0  0  0  0  0
   -1.4486    2.6850    2.3521 C   0  0  0  0  0  0  0  0  0  0  0  0
   -0.8511    3.9556    2.0495 N   0  0  0  0  0  0  0  0  0  0  0  0
   -1.5162    5.1113    2.6580 C   0  0  0  0  0  0  0  0  0  0  0  0
   -3.0454    5.0284    2.4800 C   0  0  0  0  0  0  0  0  0  0  0  0
   -3.5596    3.7117    2.8655 O   0  0  0  0  0  0  0  0  0  0  0  0
   -4.7792   -1.5143    2.1746 O   0  0  0  0  0  0  0  0  0  0  0  0
   -3.0886   -3.1036    3.7775 C   0  0  0  0  0  0  0  0  0  0  0  0
   -2.6149   -3.0141    5.2436 C   0  0  0  0  0  0  0  0  0  0  0  0
   -1.1519   -2.5644    5.3628 C   0  0  0  0  0  0  0  0  0  0  0  0
    1.2215   -0.9784    5.5658 O   0  0  0  0  0  0  0  0  0  0  0  0
    2.4653    2.8928    0.8994 C   0  0  0  0  0  0  0  0  0  0  0  0
    3.0787    4.1080    0.6064 C   0  0  0  0  0  0  0  0  0  0  0  0
    2.3612    5.3347    0.8106 C   0  0  0  0  0  0  0  0  0  0  0  0
    1.0586    5.2357    1.2958 C   0  0  0  0  0  0  0  0  0  0  0  0
    0.4627    4.0077    1.5849 C   0  0  0  0  0  0  0  0  0  0  0  0
    1.1737    2.8137    1.3889 C   0  0  0  0  0  0  0  0  0  0  0  0
   -1.4096    2.9954   -4.7043 F   0  0  0  0  0  0  0  0  0  0  0  0
  1  2  1  0  0  0  0
  2  3  1  0  0  0  0
  2  5  1  0  0  0  0
  3  4  1  0  0  0  0
  5  6  4  0  0  0  0
  5 10  4  0  0  0  0
  6  7  4  0  0  0  0
  7  8  4  0  0  0  0
  8  9  4  0  0  0  0
  9 10  4  0  0  0  0
 10 11  1  0  0  0  0
 11 12  4  0  0  0  0
 11 15  4  0  0  0  0
 12 13  1  0  0  0  0
 12 68  4  0  0  0  0
 13 14  1  0  0  0  0
 15 16  1  0  0  0  0
 15 67  4  0  0  0  0
 16 17  1  0  0  0  0
 17 18  1  0  0  0  0
 17 19  1  0  0  0  0
 17 20  1  0  0  0  0
 20 21  1  0  0  0  0
 21 22  1  0  0  0  0
 22 23  1  0  0  0  0
 22 66  2  0  0  0  0
 23 24  1  0  0  0  0
 23 65  1  0  0  0  0
 24 25  1  0  0  0  0
 25 26  1  0  0  0  0
 25 63  1  0  0  0  0
 26 27  1  0  0  0  0
 26 62  2  0  0  0  0
 27 28  1  0  0  0  0
 27 55  1  0  0  0  0
 28 29  1  0  0  0  0
 29 30  1  0  0  0  0
 29 54  2  0  0  0  0
 30 31  1  0  0  0  0
 30 34  1  0  0  0  0
 31 32  1  0  0  0  0
 31 33  1  0  0  0  0
 34 35  1  0  0  0  0
 34 53  1  0  0  0  0
 35 36  1  0  0  0  0
 35 52  2  0  0  0  0
 36 37  1  0  0  0  0
 36 51  1  0  0  0  0
 36 73  1  0  0  0  0
 37 38  1  0  0  0  0
 38 39  1  0  0  0  0
 39 40  1  0  0  0  0
 39 50  1  0  0  0  0
 40 41  1  0  0  0  0
 40 49  2  0  0  0  0
 41 42  1  0  0  0  0
 42 43  1  0  0  0  0
 43 44  1  0  0  0  0
 43 47  1  0  0  0  0
 43 48  1  0  0  0  0
 44 45  1  0  0  0  0
 44 46  1  0  0  0  0
 50 51  1  0  0  0  0
 55 56  1  0  0  0  0
 56 57  1  0  0  0  0
 56 61  1  0  0  0  0
 57 58  1  0  0  0  0
 58 59  1  0  0  0  0
 58 71  1  0  0  0  0
 59 60  1  0  0  0  0
 60 61  1  0  0  0  0
 63 64  1  0  0  0  0
 64 65  1  0  0  0  0
 67 68  4  0  0  0  0
 67 72  4  0  0  0  0
 68 69  4  0  0  0  0
 69 70  4  0  0  0  0
 70 71  4  0  0  0  0
 71 72  4  0  0  0  0
M  END
$$$$
