mol_ETKDG2_129
  PyMOL3.1          3D                             0

 73 79  0  0  0  0  0  0  0  0999 V2000
   -0.4375   -6.3155   -0.8890 C   0  0  0  0  0  0  0  0  0  0  0  0
    0.7653   -5.7208   -0.2765 C   0  0  0  0  0  0  0  0  0  0  0  0
    0.7867   -5.7089    1.1405 O   0  0  0  0  0  0  0  0  0  0  0  0
   -0.0207   -4.7829    1.8101 C   0  0  0  0  0  0  0  0  0  0  0  0
    2.0136   -6.3781   -0.7051 C   0  0  0  0  0  0  0  0  0  0  0  0
    2.3177   -7.5358   -0.1449 N   0  0  0  0  0  0  0  0  0  0  0  0
    3.4350   -8.2071   -0.4891 C   0  0  0  0  0  0  0  0  0  0  0  0
    4.3120   -7.7206   -1.4597 C   0  0  0  0  0  0  0  0  0  0  0  0
    4.0072   -6.5065   -2.0694 C   0  0  0  0  0  0  0  0  0  0  0  0
    2.8458   -5.8287   -1.6748 C   0  0  0  0  0  0  0  0  0  0  0  0
    2.5773   -4.5598   -2.2949 C   0  0  0  0  0  0  0  0  0  0  0  0
    2.0861   -4.4418   -3.5510 N   0  0  0  0  0  0  0  0  0  0  0  0
    1.6454   -5.5413   -4.4692 C   0  0  0  0  0  0  0  0  0  0  0  0
    2.5072   -5.7529   -5.6208 C   0  0  0  0  0  0  0  0  0  0  0  0
    2.7219   -3.2878   -1.6907 C   0  0  0  0  0  0  0  0  0  0  0  0
    3.0647   -2.8969   -0.2766 C   0  0  0  0  0  0  0  0  0  0  0  0
    4.5963   -2.7412    0.0801 C   0  0  0  0  0  0  0  0  0  0  0  0
    5.3275   -4.0692    0.1248 C   0  0  0  0  0  0  0  0  0  0  0  0
    4.6765   -2.2203    1.4857 C   0  0  0  0  0  0  0  0  0  0  0  0
    5.3292   -1.8056   -0.8676 C   0  0  0  0  0  0  0  0  0  0  0  0
    5.2948   -0.3425   -0.4735 O   0  0  0  0  0  0  0  0  0  0  0  0
    6.3799    0.5647   -0.6300 C   0  0  0  0  0  0  0  0  0  0  0  0
    6.1981    2.0139   -0.1892 C   0  0  0  0  0  0  0  0  0  0  0  0
    5.0092    2.1340    0.5971 N   0  0  0  0  0  0  0  0  0  0  0  0
    4.6945    3.3774    1.1335 N   0  0  0  0  0  0  0  0  0  0  0  0
    3.4768    3.9592    0.8926 C   0  0  0  0  0  0  0  0  0  0  0  0
    2.5174    3.2554   -0.0220 C   0  0  0  0  0  0  0  0  0  0  0  0
    1.1381    3.3546    0.4014 N   0  0  0  0  0  0  0  0  0  0  0  0
    0.4675    2.3318    0.9791 C   0  0  0  0  0  0  0  0  0  0  0  0
   -0.9972    2.5252    1.1779 C   0  0  0  0  0  0  0  0  0  0  0  0
   -1.4251    2.9351    2.6174 C   0  0  0  0  0  0  0  0  0  0  0  0
   -2.7833    3.5489    2.6527 C   0  0  0  0  0  0  0  0  0  0  0  0
   -0.4025    3.7039    3.3751 C   0  0  0  0  0  0  0  0  0  0  0  0
   -1.6462    1.2686    0.7661 N   0  0  0  0  0  0  0  0  0  0  0  0
   -1.8611    1.0440   -0.5757 C   0  0  0  0  0  0  0  0  0  0  0  0
   -2.4849   -0.2036   -1.1640 C   0  0  0  0  0  0  0  0  0  0  0  0
   -1.4035   -1.2576   -1.2252 C   0  0  0  0  0  0  0  0  0  0  0  0
   -1.9295   -2.5311   -1.7931 C   0  0  0  0  0  0  0  0  0  0  0  0
   -2.4964   -2.2607   -3.1179 N   0  0  0  0  0  0  0  0  0  0  0  0
   -2.0590   -2.9725   -4.2003 C   0  0  0  0  0  0  0  0  0  0  0  0
   -2.2148   -2.5350   -5.5097 C   0  0  0  0  0  0  0  0  0  0  0  0
   -2.2550   -2.3221   -6.6498 C   0  0  0  0  0  0  0  0  0  0  0  0
   -2.3325   -1.9024   -7.9960 C   0  0  0  0  0  0  0  0  0  0  0  0
   -1.8469   -2.9299   -8.8613 N   0  0  0  0  0  0  0  0  0  0  0  0
   -2.7197   -3.9190   -9.3472 C   0  0  0  0  0  0  0  0  0  0  0  0
   -0.4689   -3.2014   -8.9421 C   0  0  0  0  0  0  0  0  0  0  0  0
   -1.5365   -0.6320   -8.1843 C   0  0  0  0  0  0  0  0  0  0  0  0
   -3.7667   -1.5558   -8.3392 C   0  0  0  0  0  0  0  0  0  0  0  0
   -1.4550   -4.0230   -4.0220 O   0  0  0  0  0  0  0  0  0  0  0  0
   -3.4888   -1.2224   -3.2025 C   0  0  0  0  0  0  0  0  0  0  0  0
   -3.0242    0.0391   -2.5836 C   0  0  0  0  0  0  0  0  0  0  0  0
   -1.4923    1.9324   -1.3635 O   0  0  0  0  0  0  0  0  0  0  0  0
   -1.9315    0.2446    1.7809 C   0  0  0  0  0  0  0  0  0  0  0  0
    1.0317    1.2773    1.2084 O   0  0  0  0  0  0  0  0  0  0  0  0
    2.6536    3.8419   -1.4757 C   0  0  0  0  0  0  0  0  0  0  0  0
    1.8228    3.1091   -2.5578 C   0  0  0  0  0  0  0  0  0  0  0  0
    2.4198    1.7595   -2.7492 C   0  0  0  0  0  0  0  0  0  0  0  0
    1.8123    1.0436   -3.8430 N   0  0  0  0  0  0  0  0  0  0  0  0
    1.7587    1.7940   -5.1094 C   0  0  0  0  0  0  0  0  0  0  0  0
    1.2342    3.2148   -4.8768 C   0  0  0  0  0  0  0  0  0  0  0  0
    1.9447    3.8770   -3.7811 O   0  0  0  0  0  0  0  0  0  0  0  0
    3.1709    5.0620    1.3640 O   0  0  0  0  0  0  0  0  0  0  0  0
    5.7200    3.9700    1.9992 C   0  0  0  0  0  0  0  0  0  0  0  0
    7.0809    3.9269    1.2609 C   0  0  0  0  0  0  0  0  0  0  0  0
    7.3894    2.5423    0.6705 C   0  0  0  0  0  0  0  0  0  0  0  0
    7.4829    0.2496   -1.1080 O   0  0  0  0  0  0  0  0  0  0  0  0
    2.3521   -2.4024   -2.7091 C   0  0  0  0  0  0  0  0  0  0  0  0
    1.9665   -3.1411   -3.8215 C   0  0  0  0  0  0  0  0  0  0  0  0
    1.5103   -2.4616   -4.9940 C   0  0  0  0  0  0  0  0  0  0  0  0
    1.4631   -1.0759   -4.9517 C   0  0  0  0  0  0  0  0  0  0  0  0
    1.8619   -0.3538   -3.8336 C   0  0  0  0  0  0  0  0  0  0  0  0
    2.2982   -1.0177   -2.6712 C   0  0  0  0  0  0  0  0  0  0  0  0
   -3.5667   -0.6205   -0.4207 F   0  0  0  0  0  0  0  0  0  0  0  0
  1  2  1  0  0  0  0
  2  3  1  0  0  0  0
  2  5  1  0  0  0  0
  3  4  1  0  0  0  0
  5  6  4  0  0  0  0
  5 10  4  0  0  0  0
  6  7  4  0  0  0  0
  7  8  4  0  0  0  0
  8  9  4  0  0  0  0
  9 10  4  0  0  0  0
 10 11  1  0  0  0  0
 11 12  4  0  0  0  0
 11 15  4  0  0  0  0
 12 13  1  0  0  0  0
 12 68  4  0  0  0  0
 13 14  1  0  0  0  0
 15 16  1  0  0  0  0
 15 67  4  0  0  0  0
 16 17  1  0  0  0  0
 17 18  1  0  0  0  0
 17 19  1  0  0  0  0
 17 20  1  0  0  0  0
 20 21  1  0  0  0  0
 21 22  1  0  0  0  0
 22 23  1  0  0  0  0
 22 66  2  0  0  0  0
 23 24  1  0  0  0  0
 23 65  1  0  0  0  0
 24 25  1  0  0  0  0
 25 26  1  0  0  0  0
 25 63  1  0  0  0  0
 26 27  1  0  0  0  0
 26 62  2  0  0  0  0
 27 28  1  0  0  0  0
 27 55  1  0  0  0  0
 28 29  1  0  0  0  0
 29 30  1  0  0  0  0
 29 54  2  0  0  0  0
 30 31  1  0  0  0  0
 30 34  1  0  0  0  0
 31 32  1  0  0  0  0
 31 33  1  0  0  0  0
 34 35  1  0  0  0  0
 34 53  1  0  0  0  0
 35 36  1  0  0  0  0
 35 52  2  0  0  0  0
 36 37  1  0  0  0  0
 36 51  1  0  0  0  0
 36 73  1  0  0  0  0
 37 38  1  0  0  0  0
 38 39  1  0  0  0  0
 39 40  1  0  0  0  0
 39 50  1  0  0  0  0
 40 41  1  0  0  0  0
 40 49  2  0  0  0  0
 41 42  1  0  0  0  0
 42 43  1  0  0  0  0
 43 44  1  0  0  0  0
 43 47  1  0  0  0  0
 43 48  1  0  0  0  0
 44 45  1  0  0  0  0
 44 46  1  0  0  0  0
 50 51  1  0  0  0  0
 55 56  1  0  0  0  0
 56 57  1  0  0  0  0
 56 61  1  0  0  0  0
 57 58  1  0  0  0  0
 58 59  1  0  0  0  0
 58 71  1  0  0  0  0
 59 60  1  0  0  0  0
 60 61  1  0  0  0  0
 63 64  1  0  0  0  0
 64 65  1  0  0  0  0
 67 68  4  0  0  0  0
 67 72  4  0  0  0  0
 68 69  4  0  0  0  0
 69 70  4  0  0  0  0
 70 71  4  0  0  0  0
 71 72  4  0  0  0  0
M  END
$$$$
