mol_ETKDG3_168
  PyMOL3.1          3D                             0

 73 79  0  0  0  0  0  0  0  0999 V2000
   -2.8833    0.0056    3.0888 C   0  0  0  0  0  0  0  0  0  0  0  0
   -2.6329    0.6721    1.7945 C   0  0  0  0  0  0  0  0  0  0  0  0
   -3.6964    0.6118    0.8658 O   0  0  0  0  0  0  0  0  0  0  0  0
   -3.9868   -0.6220    0.2677 C   0  0  0  0  0  0  0  0  0  0  0  0
   -2.2694    2.0979    1.9467 C   0  0  0  0  0  0  0  0  0  0  0  0
   -3.2398    2.9744    2.1438 N   0  0  0  0  0  0  0  0  0  0  0  0
   -2.9758    4.2864    2.3289 C   0  0  0  0  0  0  0  0  0  0  0  0
   -1.6669    4.7791    2.3273 C   0  0  0  0  0  0  0  0  0  0  0  0
   -0.6185    3.8689    2.1306 C   0  0  0  0  0  0  0  0  0  0  0  0
   -0.9428    2.5199    1.9180 C   0  0  0  0  0  0  0  0  0  0  0  0
    0.1378    1.5945    1.6594 C   0  0  0  0  0  0  0  0  0  0  0  0
    0.9082    1.0450    2.6367 N   0  0  0  0  0  0  0  0  0  0  0  0
    0.7565    1.2303    4.1205 C   0  0  0  0  0  0  0  0  0  0  0  0
    1.7929    2.0486    4.7263 C   0  0  0  0  0  0  0  0  0  0  0  0
    0.4960    1.0678    0.3902 C   0  0  0  0  0  0  0  0  0  0  0  0
   -0.1507    1.2493   -0.9639 C   0  0  0  0  0  0  0  0  0  0  0  0
    0.3698    2.4685   -1.8278 C   0  0  0  0  0  0  0  0  0  0  0  0
    0.1828    3.8098   -1.1761 C   0  0  0  0  0  0  0  0  0  0  0  0
   -0.4598    2.5462   -3.0829 C   0  0  0  0  0  0  0  0  0  0  0  0
    1.8303    2.2822   -2.1455 C   0  0  0  0  0  0  0  0  0  0  0  0
    2.0803    1.4397   -3.3642 O   0  0  0  0  0  0  0  0  0  0  0  0
    2.9264    1.8195   -4.4331 C   0  0  0  0  0  0  0  0  0  0  0  0
    3.0824    0.8705   -5.5988 C   0  0  0  0  0  0  0  0  0  0  0  0
    2.1972   -0.2537   -5.4548 N   0  0  0  0  0  0  0  0  0  0  0  0
    2.2299   -1.2068   -6.4636 N   0  0  0  0  0  0  0  0  0  0  0  0
    2.4396   -2.5299   -6.1678 C   0  0  0  0  0  0  0  0  0  0  0  0
    2.5281   -2.9537   -4.7267 C   0  0  0  0  0  0  0  0  0  0  0  0
    1.9097   -4.2420   -4.5200 N   0  0  0  0  0  0  0  0  0  0  0  0
    0.7259   -4.3884   -3.9170 C   0  0  0  0  0  0  0  0  0  0  0  0
    0.2967   -5.7907   -3.6242 C   0  0  0  0  0  0  0  0  0  0  0  0
   -0.7351   -6.3754   -4.6300 C   0  0  0  0  0  0  0  0  0  0  0  0
   -1.0574   -5.5634   -5.8032 C   0  0  0  0  0  0  0  0  0  0  0  0
   -0.5179   -7.8369   -4.9062 C   0  0  0  0  0  0  0  0  0  0  0  0
   -0.2298   -5.7756   -2.2421 N   0  0  0  0  0  0  0  0  0  0  0  0
    0.6701   -5.7725   -1.1842 C   0  0  0  0  0  0  0  0  0  0  0  0
    0.2815   -5.6574    0.2811 C   0  0  0  0  0  0  0  0  0  0  0  0
    1.4580   -5.9143    1.2432 C   0  0  0  0  0  0  0  0  0  0  0  0
    1.0818   -5.6376    2.6690 C   0  0  0  0  0  0  0  0  0  0  0  0
    0.4458   -4.3149    2.8265 N   0  0  0  0  0  0  0  0  0  0  0  0
    0.8191   -3.3849    3.7763 C   0  0  0  0  0  0  0  0  0  0  0  0
    1.9941   -3.4978    4.5141 C   0  0  0  0  0  0  0  0  0  0  0  0
    2.9307   -3.4650    5.2195 C   0  0  0  0  0  0  0  0  0  0  0  0
    4.1193   -3.5491    5.9816 C   0  0  0  0  0  0  0  0  0  0  0  0
    4.1662   -2.5372    6.9790 N   0  0  0  0  0  0  0  0  0  0  0  0
    3.2331   -2.5545    8.0409 C   0  0  0  0  0  0  0  0  0  0  0  0
    5.0022   -1.4075    6.8928 C   0  0  0  0  0  0  0  0  0  0  0  0
    4.2006   -4.9244    6.6349 C   0  0  0  0  0  0  0  0  0  0  0  0
    5.3186   -3.4464    5.0611 C   0  0  0  0  0  0  0  0  0  0  0  0
    0.1129   -2.3836    3.9599 O   0  0  0  0  0  0  0  0  0  0  0  0
   -0.6082   -4.0018    1.9063 C   0  0  0  0  0  0  0  0  0  0  0  0
   -0.1900   -4.2235    0.4915 C   0  0  0  0  0  0  0  0  0  0  0  0
    1.8806   -5.8370   -1.4616 O   0  0  0  0  0  0  0  0  0  0  0  0
   -1.6782   -5.6597   -2.0404 C   0  0  0  0  0  0  0  0  0  0  0  0
    0.1148   -3.4066   -3.5085 O   0  0  0  0  0  0  0  0  0  0  0  0
    4.0373   -3.0284   -4.2277 C   0  0  0  0  0  0  0  0  0  0  0  0
    4.1719   -3.3417   -2.6980 C   0  0  0  0  0  0  0  0  0  0  0  0
    3.9028   -2.0839   -1.9515 C   0  0  0  0  0  0  0  0  0  0  0  0
    4.0495   -2.2513   -0.5203 N   0  0  0  0  0  0  0  0  0  0  0  0
    5.3392   -2.8297   -0.1073 C   0  0  0  0  0  0  0  0  0  0  0  0
    5.6790   -4.0594   -0.9672 C   0  0  0  0  0  0  0  0  0  0  0  0
    5.5226   -3.7813   -2.4106 O   0  0  0  0  0  0  0  0  0  0  0  0
    2.5659   -3.3788   -7.0642 O   0  0  0  0  0  0  0  0  0  0  0  0
    1.9626   -0.7123   -7.8168 C   0  0  0  0  0  0  0  0  0  0  0  0
    2.8345    0.5327   -8.1076 C   0  0  0  0  0  0  0  0  0  0  0  0
    2.7954    1.5547   -6.9659 C   0  0  0  0  0  0  0  0  0  0  0  0
    3.5746    2.8869   -4.4928 O   0  0  0  0  0  0  0  0  0  0  0  0
    1.5741    0.2047    0.6766 C   0  0  0  0  0  0  0  0  0  0  0  0
    1.7943    0.2227    2.0543 C   0  0  0  0  0  0  0  0  0  0  0  0
    2.8338   -0.5980    2.6016 C   0  0  0  0  0  0  0  0  0  0  0  0
    3.5528   -1.4207    1.7216 C   0  0  0  0  0  0  0  0  0  0  0  0
    3.3089   -1.4259    0.3436 C   0  0  0  0  0  0  0  0  0  0  0  0
    2.2964   -0.6081   -0.1919 C   0  0  0  0  0  0  0  0  0  0  0  0
   -0.7037   -6.5729    0.5934 F   0  0  0  0  0  0  0  0  0  0  0  0
  1  2  1  0  0  0  0
  2  3  1  0  0  0  0
  2  5  1  0  0  0  0
  3  4  1  0  0  0  0
  5  6  4  0  0  0  0
  5 10  4  0  0  0  0
  6  7  4  0  0  0  0
  7  8  4  0  0  0  0
  8  9  4  0  0  0  0
  9 10  4  0  0  0  0
 10 11  1  0  0  0  0
 11 12  4  0  0  0  0
 11 15  4  0  0  0  0
 12 13  1  0  0  0  0
 12 68  4  0  0  0  0
 13 14  1  0  0  0  0
 15 16  1  0  0  0  0
 15 67  4  0  0  0  0
 16 17  1  0  0  0  0
 17 18  1  0  0  0  0
 17 19  1  0  0  0  0
 17 20  1  0  0  0  0
 20 21  1  0  0  0  0
 21 22  1  0  0  0  0
 22 23  1  0  0  0  0
 22 66  2  0  0  0  0
 23 24  1  0  0  0  0
 23 65  1  0  0  0  0
 24 25  1  0  0  0  0
 25 26  1  0  0  0  0
 25 63  1  0  0  0  0
 26 27  1  0  0  0  0
 26 62  2  0  0  0  0
 27 28  1  0  0  0  0
 27 55  1  0  0  0  0
 28 29  1  0  0  0  0
 29 30  1  0  0  0  0
 29 54  2  0  0  0  0
 30 31  1  0  0  0  0
 30 34  1  0  0  0  0
 31 32  1  0  0  0  0
 31 33  1  0  0  0  0
 34 35  1  0  0  0  0
 34 53  1  0  0  0  0
 35 36  1  0  0  0  0
 35 52  2  0  0  0  0
 36 37  1  0  0  0  0
 36 51  1  0  0  0  0
 36 73  1  0  0  0  0
 37 38  1  0  0  0  0
 38 39  1  0  0  0  0
 39 40  1  0  0  0  0
 39 50  1  0  0  0  0
 40 41  1  0  0  0  0
 40 49  2  0  0  0  0
 41 42  1  0  0  0  0
 42 43  1  0  0  0  0
 43 44  1  0  0  0  0
 43 47  1  0  0  0  0
 43 48  1  0  0  0  0
 44 45  1  0  0  0  0
 44 46  1  0  0  0  0
 50 51  1  0  0  0  0
 55 56  1  0  0  0  0
 56 57  1  0  0  0  0
 56 61  1  0  0  0  0
 57 58  1  0  0  0  0
 58 59  1  0  0  0  0
 58 71  1  0  0  0  0
 59 60  1  0  0  0  0
 60 61  1  0  0  0  0
 63 64  1  0  0  0  0
 64 65  1  0  0  0  0
 67 68  4  0  0  0  0
 67 72  4  0  0  0  0
 68 69  4  0  0  0  0
 69 70  4  0  0  0  0
 70 71  4  0  0  0  0
 71 72  4  0  0  0  0
M  END
$$$$
