mol_ETKDG0_342
  PyMOL3.1          3D                             0

 73 79  0  0  0  0  0  0  0  0999 V2000
   -1.5243    3.3724   -1.6230 C   0  0  0  0  0  0  0  0  0  0  0  0
   -1.1224    2.5120   -2.7546 C   0  0  0  0  0  0  0  0  0  0  0  0
   -2.1593    1.7441   -3.3285 O   0  0  0  0  0  0  0  0  0  0  0  0
   -2.6435    0.6529   -2.5900 C   0  0  0  0  0  0  0  0  0  0  0  0
   -0.4887    3.2780   -3.8437 C   0  0  0  0  0  0  0  0  0  0  0  0
   -1.2691    4.0100   -4.6249 N   0  0  0  0  0  0  0  0  0  0  0  0
   -0.7541    4.7856   -5.6034 C   0  0  0  0  0  0  0  0  0  0  0  0
    0.6221    4.8560   -5.8327 C   0  0  0  0  0  0  0  0  0  0  0  0
    1.4637    4.0908   -5.0144 C   0  0  0  0  0  0  0  0  0  0  0  0
    0.8840    3.2760   -4.0304 C   0  0  0  0  0  0  0  0  0  0  0  0
    1.7643    2.4582   -3.2333 C   0  0  0  0  0  0  0  0  0  0  0  0
    2.4275    2.9344   -2.1567 N   0  0  0  0  0  0  0  0  0  0  0  0
    2.3087    4.3000   -1.5397 C   0  0  0  0  0  0  0  0  0  0  0  0
    3.4655    5.1538   -1.7544 C   0  0  0  0  0  0  0  0  0  0  0  0
    2.0259    1.0727   -3.4111 C   0  0  0  0  0  0  0  0  0  0  0  0
    1.4395    0.0540   -4.3534 C   0  0  0  0  0  0  0  0  0  0  0  0
    2.1349   -0.0699   -5.7741 C   0  0  0  0  0  0  0  0  0  0  0  0
    1.4042   -1.1495   -6.5436 C   0  0  0  0  0  0  0  0  0  0  0  0
    1.9598    1.1656   -6.5875 C   0  0  0  0  0  0  0  0  0  0  0  0
    3.6184   -0.4166   -5.6733 C   0  0  0  0  0  0  0  0  0  0  0  0
    3.9571   -1.8883   -5.6154 O   0  0  0  0  0  0  0  0  0  0  0  0
    4.9900   -2.5112   -6.3731 C   0  0  0  0  0  0  0  0  0  0  0  0
    5.2527   -4.0002   -6.1782 C   0  0  0  0  0  0  0  0  0  0  0  0
    4.1751   -4.6041   -5.4552 N   0  0  0  0  0  0  0  0  0  0  0  0
    4.2366   -5.9724   -5.2162 N   0  0  0  0  0  0  0  0  0  0  0  0
    4.1317   -6.4767   -3.9487 C   0  0  0  0  0  0  0  0  0  0  0  0
    3.9271   -5.5186   -2.8109 C   0  0  0  0  0  0  0  0  0  0  0  0
    3.0594   -6.0609   -1.7886 N   0  0  0  0  0  0  0  0  0  0  0  0
    1.7576   -5.7434   -1.6958 C   0  0  0  0  0  0  0  0  0  0  0  0
    1.0471   -6.2208   -0.4684 C   0  0  0  0  0  0  0  0  0  0  0  0
    0.1364   -7.4729   -0.6810 C   0  0  0  0  0  0  0  0  0  0  0  0
   -0.3171   -8.0782    0.6058 C   0  0  0  0  0  0  0  0  0  0  0  0
    0.7049   -8.4767   -1.6305 C   0  0  0  0  0  0  0  0  0  0  0  0
    0.2914   -5.0659    0.0273 N   0  0  0  0  0  0  0  0  0  0  0  0
    0.9484   -4.1441    0.8049 C   0  0  0  0  0  0  0  0  0  0  0  0
    0.3395   -2.8640    1.3226 C   0  0  0  0  0  0  0  0  0  0  0  0
    0.3746   -1.8671    0.1844 C   0  0  0  0  0  0  0  0  0  0  0  0
   -0.2368   -0.5592    0.5944 C   0  0  0  0  0  0  0  0  0  0  0  0
    0.4892   -0.0611    1.7699 N   0  0  0  0  0  0  0  0  0  0  0  0
    1.0748    1.1796    1.7305 C   0  0  0  0  0  0  0  0  0  0  0  0
    2.1486    1.5338    2.5417 C   0  0  0  0  0  0  0  0  0  0  0  0
    3.0339    1.9838    3.1523 C   0  0  0  0  0  0  0  0  0  0  0  0
    4.1307    2.4065    3.9339 C   0  0  0  0  0  0  0  0  0  0  0  0
    4.1018    3.8281    4.1004 N   0  0  0  0  0  0  0  0  0  0  0  0
    3.4385    4.3995    5.1987 C   0  0  0  0  0  0  0  0  0  0  0  0
    4.3581    4.6716    2.9873 C   0  0  0  0  0  0  0  0  0  0  0  0
    4.0771    1.6880    5.2672 C   0  0  0  0  0  0  0  0  0  0  0  0
    5.4431    1.9990    3.2909 C   0  0  0  0  0  0  0  0  0  0  0  0
    0.6906    2.0145    0.9119 O   0  0  0  0  0  0  0  0  0  0  0  0
    0.5662   -0.9490    2.9048 C   0  0  0  0  0  0  0  0  0  0  0  0
    1.1136   -2.2817    2.5200 C   0  0  0  0  0  0  0  0  0  0  0  0
    2.1419   -4.3711    1.0709 O   0  0  0  0  0  0  0  0  0  0  0  0
   -1.0918   -4.8688   -0.4269 C   0  0  0  0  0  0  0  0  0  0  0  0
    1.2491   -5.0040   -2.5143 O   0  0  0  0  0  0  0  0  0  0  0  0
    5.3139   -5.1448   -2.1608 C   0  0  0  0  0  0  0  0  0  0  0  0
    5.2285   -4.0875   -1.0245 C   0  0  0  0  0  0  0  0  0  0  0  0
    5.0345   -2.7535   -1.6543 C   0  0  0  0  0  0  0  0  0  0  0  0
    5.0537   -1.6881   -0.6819 N   0  0  0  0  0  0  0  0  0  0  0  0
    6.2520   -1.6899    0.1857 C   0  0  0  0  0  0  0  0  0  0  0  0
    6.4971   -3.0959    0.7511 C   0  0  0  0  0  0  0  0  0  0  0  0
    6.4892   -4.1082   -0.3125 O   0  0  0  0  0  0  0  0  0  0  0  0
    4.2324   -7.6925   -3.7158 O   0  0  0  0  0  0  0  0  0  0  0  0
    4.3541   -6.8212   -6.4027 C   0  0  0  0  0  0  0  0  0  0  0  0
    5.5077   -6.2901   -7.2852 C   0  0  0  0  0  0  0  0  0  0  0  0
    5.4227   -4.7774   -7.5194 C   0  0  0  0  0  0  0  0  0  0  0  0
    5.7096   -1.9178   -7.1976 O   0  0  0  0  0  0  0  0  0  0  0  0
    2.9490    0.7806   -2.4048 C   0  0  0  0  0  0  0  0  0  0  0  0
    3.1637    1.9382   -1.6584 C   0  0  0  0  0  0  0  0  0  0  0  0
    4.0516    1.8944   -0.5407 C   0  0  0  0  0  0  0  0  0  0  0  0
    4.6496    0.6671   -0.2442 C   0  0  0  0  0  0  0  0  0  0  0  0
    4.4223   -0.4764   -1.0071 C   0  0  0  0  0  0  0  0  0  0  0  0
    3.5454   -0.4341   -2.0971 C   0  0  0  0  0  0  0  0  0  0  0  0
   -0.9362   -3.0800    1.7797 F   0  0  0  0  0  0  0  0  0  0  0  0
  1  2  1  0  0  0  0
  2  3  1  0  0  0  0
  2  5  1  0  0  0  0
  3  4  1  0  0  0  0
  5  6  4  0  0  0  0
  5 10  4  0  0  0  0
  6  7  4  0  0  0  0
  7  8  4  0  0  0  0
  8  9  4  0  0  0  0
  9 10  4  0  0  0  0
 10 11  1  0  0  0  0
 11 12  4  0  0  0  0
 11 15  4  0  0  0  0
 12 13  1  0  0  0  0
 12 68  4  0  0  0  0
 13 14  1  0  0  0  0
 15 16  1  0  0  0  0
 15 67  4  0  0  0  0
 16 17  1  0  0  0  0
 17 18  1  0  0  0  0
 17 19  1  0  0  0  0
 17 20  1  0  0  0  0
 20 21  1  0  0  0  0
 21 22  1  0  0  0  0
 22 23  1  0  0  0  0
 22 66  2  0  0  0  0
 23 24  1  0  0  0  0
 23 65  1  0  0  0  0
 24 25  1  0  0  0  0
 25 26  1  0  0  0  0
 25 63  1  0  0  0  0
 26 27  1  0  0  0  0
 26 62  2  0  0  0  0
 27 28  1  0  0  0  0
 27 55  1  0  0  0  0
 28 29  1  0  0  0  0
 29 30  1  0  0  0  0
 29 54  2  0  0  0  0
 30 31  1  0  0  0  0
 30 34  1  0  0  0  0
 31 32  1  0  0  0  0
 31 33  1  0  0  0  0
 34 35  1  0  0  0  0
 34 53  1  0  0  0  0
 35 36  1  0  0  0  0
 35 52  2  0  0  0  0
 36 37  1  0  0  0  0
 36 51  1  0  0  0  0
 36 73  1  0  0  0  0
 37 38  1  0  0  0  0
 38 39  1  0  0  0  0
 39 40  1  0  0  0  0
 39 50  1  0  0  0  0
 40 41  1  0  0  0  0
 40 49  2  0  0  0  0
 41 42  1  0  0  0  0
 42 43  1  0  0  0  0
 43 44  1  0  0  0  0
 43 47  1  0  0  0  0
 43 48  1  0  0  0  0
 44 45  1  0  0  0  0
 44 46  1  0  0  0  0
 50 51  1  0  0  0  0
 55 56  1  0  0  0  0
 56 57  1  0  0  0  0
 56 61  1  0  0  0  0
 57 58  1  0  0  0  0
 58 59  1  0  0  0  0
 58 71  1  0  0  0  0
 59 60  1  0  0  0  0
 60 61  1  0  0  0  0
 63 64  1  0  0  0  0
 64 65  1  0  0  0  0
 67 68  4  0  0  0  0
 67 72  4  0  0  0  0
 68 69  4  0  0  0  0
 69 70  4  0  0  0  0
 70 71  4  0  0  0  0
 71 72  4  0  0  0  0
M  END
$$$$
