mol_ETKDG0_303
  PyMOL3.1          3D                             0

 73 79  0  0  0  0  0  0  0  0999 V2000
   -1.1905    4.3902   -3.2474 C   0  0  0  0  0  0  0  0  0  0  0  0
   -0.3420    3.9103   -2.1331 C   0  0  0  0  0  0  0  0  0  0  0  0
   -0.5706    4.4894   -0.8830 O   0  0  0  0  0  0  0  0  0  0  0  0
   -1.8220    4.3049   -0.2697 C   0  0  0  0  0  0  0  0  0  0  0  0
    1.0953    4.0531   -2.4002 C   0  0  0  0  0  0  0  0  0  0  0  0
    1.6090    5.2762   -2.3705 N   0  0  0  0  0  0  0  0  0  0  0  0
    2.9054    5.4967   -2.6687 C   0  0  0  0  0  0  0  0  0  0  0  0
    3.7591    4.4510   -3.0385 C   0  0  0  0  0  0  0  0  0  0  0  0
    3.2259    3.1530   -3.0902 C   0  0  0  0  0  0  0  0  0  0  0  0
    1.8815    2.9576   -2.7221 C   0  0  0  0  0  0  0  0  0  0  0  0
    1.3412    1.6068   -2.7246 C   0  0  0  0  0  0  0  0  0  0  0  0
    0.7780    1.0224   -3.8145 N   0  0  0  0  0  0  0  0  0  0  0  0
    0.5968    1.6347   -5.1815 C   0  0  0  0  0  0  0  0  0  0  0  0
    1.5970    1.1579   -6.1515 C   0  0  0  0  0  0  0  0  0  0  0  0
    1.2428    0.7381   -1.6058 C   0  0  0  0  0  0  0  0  0  0  0  0
    1.5974    0.9652   -0.1607 C   0  0  0  0  0  0  0  0  0  0  0  0
    3.0820    0.5835    0.2321 C   0  0  0  0  0  0  0  0  0  0  0  0
    3.2903    0.9691    1.6870 C   0  0  0  0  0  0  0  0  0  0  0  0
    4.1024    1.3544   -0.5089 C   0  0  0  0  0  0  0  0  0  0  0  0
    3.3186   -0.8628    0.0326 C   0  0  0  0  0  0  0  0  0  0  0  0
    2.9307   -1.7926    1.1443 O   0  0  0  0  0  0  0  0  0  0  0  0
    3.6965   -2.9408    1.5004 C   0  0  0  0  0  0  0  0  0  0  0  0
    3.2067   -3.8310    2.6091 C   0  0  0  0  0  0  0  0  0  0  0  0
    2.0139   -3.3018    3.2081 N   0  0  0  0  0  0  0  0  0  0  0  0
    1.4863   -4.0390    4.2605 N   0  0  0  0  0  0  0  0  0  0  0  0
    0.2049   -4.4988    4.2263 C   0  0  0  0  0  0  0  0  0  0  0  0
   -0.6838   -4.1411    3.0674 C   0  0  0  0  0  0  0  0  0  0  0  0
   -2.0684   -4.1112    3.4922 N   0  0  0  0  0  0  0  0  0  0  0  0
   -2.7462   -2.9977    3.7889 C   0  0  0  0  0  0  0  0  0  0  0  0
   -4.1786   -3.1912    4.1470 C   0  0  0  0  0  0  0  0  0  0  0  0
   -4.5257   -2.8930    5.6401 C   0  0  0  0  0  0  0  0  0  0  0  0
   -5.8738   -3.4093    6.0307 C   0  0  0  0  0  0  0  0  0  0  0  0
   -3.4520   -3.2921    6.5901 C   0  0  0  0  0  0  0  0  0  0  0  0
   -4.9962   -2.4239    3.2382 N   0  0  0  0  0  0  0  0  0  0  0  0
   -5.4446   -3.0412    2.1136 C   0  0  0  0  0  0  0  0  0  0  0  0
   -6.3018   -2.3966    1.0749 C   0  0  0  0  0  0  0  0  0  0  0  0
   -7.1760   -3.4228    0.3354 C   0  0  0  0  0  0  0  0  0  0  0  0
   -7.9318   -2.7704   -0.7672 C   0  0  0  0  0  0  0  0  0  0  0  0
   -6.9839   -2.0259   -1.6134 N   0  0  0  0  0  0  0  0  0  0  0  0
   -6.8099   -2.2699   -2.9313 C   0  0  0  0  0  0  0  0  0  0  0  0
   -7.3007   -3.4018   -3.5162 C   0  0  0  0  0  0  0  0  0  0  0  0
   -7.7286   -4.2874   -4.1035 C   0  0  0  0  0  0  0  0  0  0  0  0
   -8.2984   -5.4265   -4.6767 C   0  0  0  0  0  0  0  0  0  0  0  0
   -8.9580   -5.1428   -5.9029 N   0  0  0  0  0  0  0  0  0  0  0  0
   -8.5346   -4.0743   -6.7050 C   0  0  0  0  0  0  0  0  0  0  0  0
   -9.8720   -6.0359   -6.4847 C   0  0  0  0  0  0  0  0  0  0  0  0
   -7.2142   -6.4728   -4.9200 C   0  0  0  0  0  0  0  0  0  0  0  0
   -9.2784   -6.0094   -3.6766 C   0  0  0  0  0  0  0  0  0  0  0  0
   -6.1385   -1.4819   -3.6230 O   0  0  0  0  0  0  0  0  0  0  0  0
   -6.1875   -1.0377   -0.9657 C   0  0  0  0  0  0  0  0  0  0  0  0
   -5.3820   -1.6973    0.0986 C   0  0  0  0  0  0  0  0  0  0  0  0
   -5.1105   -4.2278    1.9342 O   0  0  0  0  0  0  0  0  0  0  0  0
   -5.2110   -0.9947    3.5140 C   0  0  0  0  0  0  0  0  0  0  0  0
   -2.2298   -1.9126    3.6404 O   0  0  0  0  0  0  0  0  0  0  0  0
   -0.5454   -5.2424    1.9448 C   0  0  0  0  0  0  0  0  0  0  0  0
   -1.2679   -4.9059    0.6188 C   0  0  0  0  0  0  0  0  0  0  0  0
   -0.3370   -4.0492   -0.1753 C   0  0  0  0  0  0  0  0  0  0  0  0
   -0.8198   -3.7856   -1.5096 N   0  0  0  0  0  0  0  0  0  0  0  0
   -1.2729   -4.9626   -2.2560 C   0  0  0  0  0  0  0  0  0  0  0  0
   -2.1235   -5.8911   -1.3856 C   0  0  0  0  0  0  0  0  0  0  0  0
   -1.4923   -6.1484   -0.0853 O   0  0  0  0  0  0  0  0  0  0  0  0
   -0.2280   -5.2432    5.1231 O   0  0  0  0  0  0  0  0  0  0  0  0
    2.3814   -4.2369    5.4021 C   0  0  0  0  0  0  0  0  0  0  0  0
    3.7170   -4.8241    4.8948 C   0  0  0  0  0  0  0  0  0  0  0  0
    4.2812   -4.0241    3.7161 C   0  0  0  0  0  0  0  0  0  0  0  0
    4.7786   -3.2970    0.9672 O   0  0  0  0  0  0  0  0  0  0  0  0
    0.6238   -0.4246   -2.1228 C   0  0  0  0  0  0  0  0  0  0  0  0
    0.3536   -0.2080   -3.4683 C   0  0  0  0  0  0  0  0  0  0  0  0
   -0.3262   -1.2328   -4.2188 C   0  0  0  0  0  0  0  0  0  0  0  0
   -0.6974   -2.4037   -3.5362 C   0  0  0  0  0  0  0  0  0  0  0  0
   -0.4167   -2.6080   -2.1724 C   0  0  0  0  0  0  0  0  0  0  0  0
    0.2520   -1.5954   -1.4517 C   0  0  0  0  0  0  0  0  0  0  0  0
   -7.1837   -1.4795    1.6189 F   0  0  0  0  0  0  0  0  0  0  0  0
  1  2  1  0  0  0  0
  2  3  1  0  0  0  0
  2  5  1  0  0  0  0
  3  4  1  0  0  0  0
  5  6  4  0  0  0  0
  5 10  4  0  0  0  0
  6  7  4  0  0  0  0
  7  8  4  0  0  0  0
  8  9  4  0  0  0  0
  9 10  4  0  0  0  0
 10 11  1  0  0  0  0
 11 12  4  0  0  0  0
 11 15  4  0  0  0  0
 12 13  1  0  0  0  0
 12 68  4  0  0  0  0
 13 14  1  0  0  0  0
 15 16  1  0  0  0  0
 15 67  4  0  0  0  0
 16 17  1  0  0  0  0
 17 18  1  0  0  0  0
 17 19  1  0  0  0  0
 17 20  1  0  0  0  0
 20 21  1  0  0  0  0
 21 22  1  0  0  0  0
 22 23  1  0  0  0  0
 22 66  2  0  0  0  0
 23 24  1  0  0  0  0
 23 65  1  0  0  0  0
 24 25  1  0  0  0  0
 25 26  1  0  0  0  0
 25 63  1  0  0  0  0
 26 27  1  0  0  0  0
 26 62  2  0  0  0  0
 27 28  1  0  0  0  0
 27 55  1  0  0  0  0
 28 29  1  0  0  0  0
 29 30  1  0  0  0  0
 29 54  2  0  0  0  0
 30 31  1  0  0  0  0
 30 34  1  0  0  0  0
 31 32  1  0  0  0  0
 31 33  1  0  0  0  0
 34 35  1  0  0  0  0
 34 53  1  0  0  0  0
 35 36  1  0  0  0  0
 35 52  2  0  0  0  0
 36 37  1  0  0  0  0
 36 51  1  0  0  0  0
 36 73  1  0  0  0  0
 37 38  1  0  0  0  0
 38 39  1  0  0  0  0
 39 40  1  0  0  0  0
 39 50  1  0  0  0  0
 40 41  1  0  0  0  0
 40 49  2  0  0  0  0
 41 42  1  0  0  0  0
 42 43  1  0  0  0  0
 43 44  1  0  0  0  0
 43 47  1  0  0  0  0
 43 48  1  0  0  0  0
 44 45  1  0  0  0  0
 44 46  1  0  0  0  0
 50 51  1  0  0  0  0
 55 56  1  0  0  0  0
 56 57  1  0  0  0  0
 56 61  1  0  0  0  0
 57 58  1  0  0  0  0
 58 59  1  0  0  0  0
 58 71  1  0  0  0  0
 59 60  1  0  0  0  0
 60 61  1  0  0  0  0
 63 64  1  0  0  0  0
 64 65  1  0  0  0  0
 67 68  4  0  0  0  0
 67 72  4  0  0  0  0
 68 69  4  0  0  0  0
 69 70  4  0  0  0  0
 70 71  4  0  0  0  0
 71 72  4  0  0  0  0
M  END
$$$$
