mol_ETKDG1_57
  PyMOL3.1          3D                             0

 73 79  0  0  0  0  0  0  0  0999 V2000
   -6.0646   -2.2142   -4.2309 C   0  0  0  0  0  0  0  0  0  0  0  0
   -5.2227   -2.6244   -3.0847 C   0  0  0  0  0  0  0  0  0  0  0  0
   -5.9245   -2.8283   -1.8724 O   0  0  0  0  0  0  0  0  0  0  0  0
   -6.2999   -1.6849   -1.1445 C   0  0  0  0  0  0  0  0  0  0  0  0
   -4.4383   -3.8540   -3.3661 C   0  0  0  0  0  0  0  0  0  0  0  0
   -5.0465   -5.0288   -3.2662 N   0  0  0  0  0  0  0  0  0  0  0  0
   -4.4024   -6.1840   -3.5582 C   0  0  0  0  0  0  0  0  0  0  0  0
   -3.0731   -6.1948   -3.9901 C   0  0  0  0  0  0  0  0  0  0  0  0
   -2.4122   -4.9647   -4.1101 C   0  0  0  0  0  0  0  0  0  0  0  0
   -3.1089   -3.7937   -3.7722 C   0  0  0  0  0  0  0  0  0  0  0  0
   -2.3996   -2.5443   -3.8550 C   0  0  0  0  0  0  0  0  0  0  0  0
   -2.2803   -1.8200   -5.0024 N   0  0  0  0  0  0  0  0  0  0  0  0
   -2.8644   -2.1327   -6.3517 C   0  0  0  0  0  0  0  0  0  0  0  0
   -1.8645   -2.5960   -7.3238 C   0  0  0  0  0  0  0  0  0  0  0  0
   -1.7909   -1.8616   -2.7646 C   0  0  0  0  0  0  0  0  0  0  0  0
   -1.7816   -2.1445   -1.2834 C   0  0  0  0  0  0  0  0  0  0  0  0
   -0.7196   -3.1769   -0.7225 C   0  0  0  0  0  0  0  0  0  0  0  0
   -0.8046   -3.1228    0.7969 C   0  0  0  0  0  0  0  0  0  0  0  0
   -1.0762   -4.5841   -1.0601 C   0  0  0  0  0  0  0  0  0  0  0  0
    0.7292   -2.9065   -1.1390 C   0  0  0  0  0  0  0  0  0  0  0  0
    1.4858   -1.9662   -0.2579 O   0  0  0  0  0  0  0  0  0  0  0  0
    2.8907   -1.9419   -0.0915 C   0  0  0  0  0  0  0  0  0  0  0  0
    3.4715   -0.9160    0.8698 C   0  0  0  0  0  0  0  0  0  0  0  0
    2.3963   -0.2792    1.5669 N   0  0  0  0  0  0  0  0  0  0  0  0
    2.6745    0.6256    2.5776 N   0  0  0  0  0  0  0  0  0  0  0  0
    2.0925    1.8660    2.5727 C   0  0  0  0  0  0  0  0  0  0  0  0
    1.2351    2.2408    1.3943 C   0  0  0  0  0  0  0  0  0  0  0  0
    0.0270    2.9538    1.7843 N   0  0  0  0  0  0  0  0  0  0  0  0
   -1.2167    2.4162    1.6612 C   0  0  0  0  0  0  0  0  0  0  0  0
   -2.3516    3.3368    1.9641 C   0  0  0  0  0  0  0  0  0  0  0  0
   -2.9916    3.0596    3.3629 C   0  0  0  0  0  0  0  0  0  0  0  0
   -4.0231    4.0625    3.7381 C   0  0  0  0  0  0  0  0  0  0  0  0
   -1.9550    2.8797    4.4342 C   0  0  0  0  0  0  0  0  0  0  0  0
   -3.3208    3.2152    0.8461 N   0  0  0  0  0  0  0  0  0  0  0  0
   -3.1307    3.9933   -0.2922 C   0  0  0  0  0  0  0  0  0  0  0  0
   -3.9909    3.9640   -1.5451 C   0  0  0  0  0  0  0  0  0  0  0  0
   -4.1618    5.3449   -2.1764 C   0  0  0  0  0  0  0  0  0  0  0  0
   -4.9913    5.2392   -3.4417 C   0  0  0  0  0  0  0  0  0  0  0  0
   -4.3088    4.2990   -4.3670 N   0  0  0  0  0  0  0  0  0  0  0  0
   -4.0358    4.7242   -5.6439 C   0  0  0  0  0  0  0  0  0  0  0  0
   -2.8462    4.4897   -6.3685 C   0  0  0  0  0  0  0  0  0  0  0  0
   -1.9569    4.6059   -7.1374 C   0  0  0  0  0  0  0  0  0  0  0  0
   -0.8076    4.6940   -7.9552 C   0  0  0  0  0  0  0  0  0  0  0  0
   -0.9042    5.7430   -8.9334 N   0  0  0  0  0  0  0  0  0  0  0  0
   -1.5246    6.9607   -8.5944 C   0  0  0  0  0  0  0  0  0  0  0  0
   -0.1553    5.7488  -10.1234 C   0  0  0  0  0  0  0  0  0  0  0  0
   -0.6167    3.3597   -8.6297 C   0  0  0  0  0  0  0  0  0  0  0  0
    0.4199    4.9747   -7.0946 C   0  0  0  0  0  0  0  0  0  0  0  0
   -4.8530    5.4549   -6.1818 O   0  0  0  0  0  0  0  0  0  0  0  0
   -3.9848    2.9881   -3.8516 C   0  0  0  0  0  0  0  0  0  0  0  0
   -3.2838    3.0260   -2.5447 C   0  0  0  0  0  0  0  0  0  0  0  0
   -2.1474    4.7596   -0.3052 O   0  0  0  0  0  0  0  0  0  0  0  0
   -4.3669    2.1974    0.9301 C   0  0  0  0  0  0  0  0  0  0  0  0
   -1.3746    1.2877    1.2285 O   0  0  0  0  0  0  0  0  0  0  0  0
    2.0788    3.1341    0.4031 C   0  0  0  0  0  0  0  0  0  0  0  0
    1.3352    3.4884   -0.9120 C   0  0  0  0  0  0  0  0  0  0  0  0
    1.2166    2.2318   -1.7089 C   0  0  0  0  0  0  0  0  0  0  0  0
    0.6142    2.4621   -2.9933 N   0  0  0  0  0  0  0  0  0  0  0  0
    1.2702    3.5032   -3.7969 C   0  0  0  0  0  0  0  0  0  0  0  0
    1.5083    4.7642   -2.9452 C   0  0  0  0  0  0  0  0  0  0  0  0
    2.1497    4.4403   -1.6553 O   0  0  0  0  0  0  0  0  0  0  0  0
    2.2957    2.6879    3.4742 O   0  0  0  0  0  0  0  0  0  0  0  0
    3.5599    0.1552    3.6447 C   0  0  0  0  0  0  0  0  0  0  0  0
    4.8005   -0.5315    3.0228 C   0  0  0  0  0  0  0  0  0  0  0  0
    4.4326   -1.5447    1.9248 C   0  0  0  0  0  0  0  0  0  0  0  0
    3.6739   -2.7036   -0.6809 O   0  0  0  0  0  0  0  0  0  0  0  0
   -1.2455   -0.7066   -3.3650 C   0  0  0  0  0  0  0  0  0  0  0  0
   -1.5738   -0.7122   -4.7219 C   0  0  0  0  0  0  0  0  0  0  0  0
   -1.1653    0.3943   -5.5498 C   0  0  0  0  0  0  0  0  0  0  0  0
   -0.4388    1.4264   -4.9354 C   0  0  0  0  0  0  0  0  0  0  0  0
   -0.1170    1.4094   -3.5793 C   0  0  0  0  0  0  0  0  0  0  0  0
   -0.5417    0.3356   -2.7680 C   0  0  0  0  0  0  0  0  0  0  0  0
   -5.2598    3.5089   -1.2924 F   0  0  0  0  0  0  0  0  0  0  0  0
  1  2  1  0  0  0  0
  2  3  1  0  0  0  0
  2  5  1  0  0  0  0
  3  4  1  0  0  0  0
  5  6  4  0  0  0  0
  5 10  4  0  0  0  0
  6  7  4  0  0  0  0
  7  8  4  0  0  0  0
  8  9  4  0  0  0  0
  9 10  4  0  0  0  0
 10 11  1  0  0  0  0
 11 12  4  0  0  0  0
 11 15  4  0  0  0  0
 12 13  1  0  0  0  0
 12 68  4  0  0  0  0
 13 14  1  0  0  0  0
 15 16  1  0  0  0  0
 15 67  4  0  0  0  0
 16 17  1  0  0  0  0
 17 18  1  0  0  0  0
 17 19  1  0  0  0  0
 17 20  1  0  0  0  0
 20 21  1  0  0  0  0
 21 22  1  0  0  0  0
 22 23  1  0  0  0  0
 22 66  2  0  0  0  0
 23 24  1  0  0  0  0
 23 65  1  0  0  0  0
 24 25  1  0  0  0  0
 25 26  1  0  0  0  0
 25 63  1  0  0  0  0
 26 27  1  0  0  0  0
 26 62  2  0  0  0  0
 27 28  1  0  0  0  0
 27 55  1  0  0  0  0
 28 29  1  0  0  0  0
 29 30  1  0  0  0  0
 29 54  2  0  0  0  0
 30 31  1  0  0  0  0
 30 34  1  0  0  0  0
 31 32  1  0  0  0  0
 31 33  1  0  0  0  0
 34 35  1  0  0  0  0
 34 53  1  0  0  0  0
 35 36  1  0  0  0  0
 35 52  2  0  0  0  0
 36 37  1  0  0  0  0
 36 51  1  0  0  0  0
 36 73  1  0  0  0  0
 37 38  1  0  0  0  0
 38 39  1  0  0  0  0
 39 40  1  0  0  0  0
 39 50  1  0  0  0  0
 40 41  1  0  0  0  0
 40 49  2  0  0  0  0
 41 42  1  0  0  0  0
 42 43  1  0  0  0  0
 43 44  1  0  0  0  0
 43 47  1  0  0  0  0
 43 48  1  0  0  0  0
 44 45  1  0  0  0  0
 44 46  1  0  0  0  0
 50 51  1  0  0  0  0
 55 56  1  0  0  0  0
 56 57  1  0  0  0  0
 56 61  1  0  0  0  0
 57 58  1  0  0  0  0
 58 59  1  0  0  0  0
 58 71  1  0  0  0  0
 59 60  1  0  0  0  0
 60 61  1  0  0  0  0
 63 64  1  0  0  0  0
 64 65  1  0  0  0  0
 67 68  4  0  0  0  0
 67 72  4  0  0  0  0
 68 69  4  0  0  0  0
 69 70  4  0  0  0  0
 70 71  4  0  0  0  0
 71 72  4  0  0  0  0
M  END
$$$$
