mol_ETKDG1_66
  PyMOL3.1          3D                             0

 73 79  0  0  0  0  0  0  0  0999 V2000
    3.5660    3.7380   -3.5101 C   0  0  0  0  0  0  0  0  0  0  0  0
    3.8826    2.6441   -2.5700 C   0  0  0  0  0  0  0  0  0  0  0  0
    4.4130    1.4739   -3.1592 O   0  0  0  0  0  0  0  0  0  0  0  0
    3.5440    0.6879   -3.9375 C   0  0  0  0  0  0  0  0  0  0  0  0
    4.8296    3.0673   -1.5161 C   0  0  0  0  0  0  0  0  0  0  0  0
    6.1035    3.2019   -1.8433 N   0  0  0  0  0  0  0  0  0  0  0  0
    7.0137    3.6345   -0.9509 C   0  0  0  0  0  0  0  0  0  0  0  0
    6.6559    3.9685    0.3575 C   0  0  0  0  0  0  0  0  0  0  0  0
    5.3111    3.8431    0.7257 C   0  0  0  0  0  0  0  0  0  0  0  0
    4.3994    3.3632   -0.2255 C   0  0  0  0  0  0  0  0  0  0  0  0
    3.0281    3.1954    0.1814 C   0  0  0  0  0  0  0  0  0  0  0  0
    2.1315    4.2114    0.2306 N   0  0  0  0  0  0  0  0  0  0  0  0
    2.3511    5.6490   -0.1433 C   0  0  0  0  0  0  0  0  0  0  0  0
    2.4868    6.5345    1.0152 C   0  0  0  0  0  0  0  0  0  0  0  0
    2.4084    1.9623    0.5122 C   0  0  0  0  0  0  0  0  0  0  0  0
    2.9438    0.5518    0.5084 C   0  0  0  0  0  0  0  0  0  0  0  0
    3.5972    0.0569    1.8722 C   0  0  0  0  0  0  0  0  0  0  0  0
    4.0963   -1.3566    1.6367 C   0  0  0  0  0  0  0  0  0  0  0  0
    4.8115    0.8322    2.2332 C   0  0  0  0  0  0  0  0  0  0  0  0
    2.6139    0.1045    3.0506 C   0  0  0  0  0  0  0  0  0  0  0  0
    1.7302   -1.1053    3.1930 O   0  0  0  0  0  0  0  0  0  0  0  0
    1.6861   -1.9533    4.3343 C   0  0  0  0  0  0  0  0  0  0  0  0
    0.7212   -3.1336    4.3302 C   0  0  0  0  0  0  0  0  0  0  0  0
    0.4089   -3.5022    2.9865 N   0  0  0  0  0  0  0  0  0  0  0  0
   -0.4221   -4.6002    2.7826 N   0  0  0  0  0  0  0  0  0  0  0  0
   -1.5411   -4.5076    2.0018 C   0  0  0  0  0  0  0  0  0  0  0  0
   -1.8728   -3.1892    1.3673 C   0  0  0  0  0  0  0  0  0  0  0  0
   -2.3769   -3.3438    0.0254 N   0  0  0  0  0  0  0  0  0  0  0  0
   -1.6254   -3.1113   -1.0576 C   0  0  0  0  0  0  0  0  0  0  0  0
   -2.3365   -3.1349   -2.3677 C   0  0  0  0  0  0  0  0  0  0  0  0
   -2.0841   -4.4379   -3.1929 C   0  0  0  0  0  0  0  0  0  0  0  0
   -2.9833   -4.5494   -4.3742 C   0  0  0  0  0  0  0  0  0  0  0  0
   -2.0823   -5.6744   -2.3466 C   0  0  0  0  0  0  0  0  0  0  0  0
   -1.9062   -1.9270   -3.0785 N   0  0  0  0  0  0  0  0  0  0  0  0
   -2.5229   -0.7240   -2.7935 C   0  0  0  0  0  0  0  0  0  0  0  0
   -2.1089    0.5993   -3.3836 C   0  0  0  0  0  0  0  0  0  0  0  0
   -0.8368    1.0203   -2.6868 C   0  0  0  0  0  0  0  0  0  0  0  0
   -0.2930    2.2533   -3.2834 C   0  0  0  0  0  0  0  0  0  0  0  0
   -1.2892    3.3178   -3.2383 N   0  0  0  0  0  0  0  0  0  0  0  0
   -0.9205    4.5435   -2.7714 C   0  0  0  0  0  0  0  0  0  0  0  0
   -1.8256    5.5212   -2.3724 C   0  0  0  0  0  0  0  0  0  0  0  0
   -2.4245    6.4708   -2.0509 C   0  0  0  0  0  0  0  0  0  0  0  0
   -3.2669    7.5357   -1.6925 C   0  0  0  0  0  0  0  0  0  0  0  0
   -3.0624    8.6290   -2.5959 N   0  0  0  0  0  0  0  0  0  0  0  0
   -3.8750    8.7989   -3.7293 C   0  0  0  0  0  0  0  0  0  0  0  0
   -1.8678    9.3954   -2.5404 C   0  0  0  0  0  0  0  0  0  0  0  0
   -4.7048    7.0590   -1.7138 C   0  0  0  0  0  0  0  0  0  0  0  0
   -2.9844    7.9949   -0.2729 C   0  0  0  0  0  0  0  0  0  0  0  0
    0.2738    4.8061   -2.6613 O   0  0  0  0  0  0  0  0  0  0  0  0
   -2.6124    3.0079   -3.7110 C   0  0  0  0  0  0  0  0  0  0  0  0
   -3.1373    1.7241   -3.1926 C   0  0  0  0  0  0  0  0  0  0  0  0
   -3.4578   -0.7392   -1.9743 O   0  0  0  0  0  0  0  0  0  0  0  0
   -0.7431   -2.0101   -3.9735 C   0  0  0  0  0  0  0  0  0  0  0  0
   -0.4567   -2.7879   -0.9408 O   0  0  0  0  0  0  0  0  0  0  0  0
   -2.9359   -2.4008    2.2273 C   0  0  0  0  0  0  0  0  0  0  0  0
   -3.2522   -0.9705    1.7092 C   0  0  0  0  0  0  0  0  0  0  0  0
   -2.0840   -0.1010    2.0284 C   0  0  0  0  0  0  0  0  0  0  0  0
   -2.3200    1.2844    1.7011 N   0  0  0  0  0  0  0  0  0  0  0  0
   -3.5552    1.8446    2.2579 C   0  0  0  0  0  0  0  0  0  0  0  0
   -4.7358    0.8882    2.0278 C   0  0  0  0  0  0  0  0  0  0  0  0
   -4.4121   -0.4872    2.4255 O   0  0  0  0  0  0  0  0  0  0  0  0
   -2.2974   -5.4783    1.8332 O   0  0  0  0  0  0  0  0  0  0  0  0
    0.0301   -5.8500    3.3909 C   0  0  0  0  0  0  0  0  0  0  0  0
    0.3908   -5.6015    4.8685 C   0  0  0  0  0  0  0  0  0  0  0  0
    1.3012   -4.3875    5.0535 C   0  0  0  0  0  0  0  0  0  0  0  0
    2.3935   -1.7839    5.3540 O   0  0  0  0  0  0  0  0  0  0  0  0
    1.0836    2.3284    0.8000 C   0  0  0  0  0  0  0  0  0  0  0  0
    0.9541    3.7017    0.6181 C   0  0  0  0  0  0  0  0  0  0  0  0
   -0.3213    4.3161    0.8239 C   0  0  0  0  0  0  0  0  0  0  0  0
   -1.3907    3.4795    1.1650 C   0  0  0  0  0  0  0  0  0  0  0  0
   -1.2361    2.0990    1.3442 C   0  0  0  0  0  0  0  0  0  0  0  0
    0.0208    1.5114    1.1508 C   0  0  0  0  0  0  0  0  0  0  0  0
   -1.9383    0.4863   -4.7433 F   0  0  0  0  0  0  0  0  0  0  0  0
  1  2  1  0  0  0  0
  2  3  1  0  0  0  0
  2  5  1  0  0  0  0
  3  4  1  0  0  0  0
  5  6  4  0  0  0  0
  5 10  4  0  0  0  0
  6  7  4  0  0  0  0
  7  8  4  0  0  0  0
  8  9  4  0  0  0  0
  9 10  4  0  0  0  0
 10 11  1  0  0  0  0
 11 12  4  0  0  0  0
 11 15  4  0  0  0  0
 12 13  1  0  0  0  0
 12 68  4  0  0  0  0
 13 14  1  0  0  0  0
 15 16  1  0  0  0  0
 15 67  4  0  0  0  0
 16 17  1  0  0  0  0
 17 18  1  0  0  0  0
 17 19  1  0  0  0  0
 17 20  1  0  0  0  0
 20 21  1  0  0  0  0
 21 22  1  0  0  0  0
 22 23  1  0  0  0  0
 22 66  2  0  0  0  0
 23 24  1  0  0  0  0
 23 65  1  0  0  0  0
 24 25  1  0  0  0  0
 25 26  1  0  0  0  0
 25 63  1  0  0  0  0
 26 27  1  0  0  0  0
 26 62  2  0  0  0  0
 27 28  1  0  0  0  0
 27 55  1  0  0  0  0
 28 29  1  0  0  0  0
 29 30  1  0  0  0  0
 29 54  2  0  0  0  0
 30 31  1  0  0  0  0
 30 34  1  0  0  0  0
 31 32  1  0  0  0  0
 31 33  1  0  0  0  0
 34 35  1  0  0  0  0
 34 53  1  0  0  0  0
 35 36  1  0  0  0  0
 35 52  2  0  0  0  0
 36 37  1  0  0  0  0
 36 51  1  0  0  0  0
 36 73  1  0  0  0  0
 37 38  1  0  0  0  0
 38 39  1  0  0  0  0
 39 40  1  0  0  0  0
 39 50  1  0  0  0  0
 40 41  1  0  0  0  0
 40 49  2  0  0  0  0
 41 42  1  0  0  0  0
 42 43  1  0  0  0  0
 43 44  1  0  0  0  0
 43 47  1  0  0  0  0
 43 48  1  0  0  0  0
 44 45  1  0  0  0  0
 44 46  1  0  0  0  0
 50 51  1  0  0  0  0
 55 56  1  0  0  0  0
 56 57  1  0  0  0  0
 56 61  1  0  0  0  0
 57 58  1  0  0  0  0
 58 59  1  0  0  0  0
 58 71  1  0  0  0  0
 59 60  1  0  0  0  0
 60 61  1  0  0  0  0
 63 64  1  0  0  0  0
 64 65  1  0  0  0  0
 67 68  4  0  0  0  0
 67 72  4  0  0  0  0
 68 69  4  0  0  0  0
 69 70  4  0  0  0  0
 70 71  4  0  0  0  0
 71 72  4  0  0  0  0
M  END
$$$$
