mol_ETKDG0_328
  PyMOL3.1          3D                             0

 73 79  0  0  0  0  0  0  0  0999 V2000
    6.8224    2.9162   -5.7438 C   0  0  0  0  0  0  0  0  0  0  0  0
    6.7638    2.6539   -4.2838 C   0  0  0  0  0  0  0  0  0  0  0  0
    7.5228    1.5333   -3.8540 O   0  0  0  0  0  0  0  0  0  0  0  0
    6.9913    0.2591   -4.1180 C   0  0  0  0  0  0  0  0  0  0  0  0
    7.1955    3.8129   -3.4780 C   0  0  0  0  0  0  0  0  0  0  0  0
    8.4951    4.0460   -3.3816 N   0  0  0  0  0  0  0  0  0  0  0  0
    8.9719    5.1165   -2.7080 C   0  0  0  0  0  0  0  0  0  0  0  0
    8.1141    6.0322   -2.0855 C   0  0  0  0  0  0  0  0  0  0  0  0
    6.7362    5.8080   -2.1818 C   0  0  0  0  0  0  0  0  0  0  0  0
    6.2775    4.6695   -2.8671 C   0  0  0  0  0  0  0  0  0  0  0  0
    4.8512    4.4299   -2.9108 C   0  0  0  0  0  0  0  0  0  0  0  0
    4.0203    5.0322   -3.7962 N   0  0  0  0  0  0  0  0  0  0  0  0
    4.3992    5.9766   -4.9011 C   0  0  0  0  0  0  0  0  0  0  0  0
    4.0434    7.3657   -4.6408 C   0  0  0  0  0  0  0  0  0  0  0  0
    4.1246    3.5052   -2.1019 C   0  0  0  0  0  0  0  0  0  0  0  0
    4.5807    2.5078   -1.0705 C   0  0  0  0  0  0  0  0  0  0  0  0
    4.7002    3.0385    0.4245 C   0  0  0  0  0  0  0  0  0  0  0  0
    5.1515    1.8684    1.2697 C   0  0  0  0  0  0  0  0  0  0  0  0
    5.7914    4.0440    0.5667 C   0  0  0  0  0  0  0  0  0  0  0  0
    3.3928    3.6318    0.9772 C   0  0  0  0  0  0  0  0  0  0  0  0
    2.4327    2.6781    1.6358 O   0  0  0  0  0  0  0  0  0  0  0  0
    1.8489    2.8731    2.9289 C   0  0  0  0  0  0  0  0  0  0  0  0
    0.8298    1.8554    3.4350 C   0  0  0  0  0  0  0  0  0  0  0  0
    1.0279    0.5923    2.7762 N   0  0  0  0  0  0  0  0  0  0  0  0
    0.2078   -0.4743    3.1540 N   0  0  0  0  0  0  0  0  0  0  0  0
   -0.5157   -1.1784    2.2279 C   0  0  0  0  0  0  0  0  0  0  0  0
   -0.4407   -0.7660    0.7886 C   0  0  0  0  0  0  0  0  0  0  0  0
   -0.4025   -1.9135   -0.0941 N   0  0  0  0  0  0  0  0  0  0  0  0
    0.7179   -2.3250   -0.7202 C   0  0  0  0  0  0  0  0  0  0  0  0
    0.5436   -3.3924   -1.7507 C   0  0  0  0  0  0  0  0  0  0  0  0
    0.8986   -4.8362   -1.3124 C   0  0  0  0  0  0  0  0  0  0  0  0
    1.4004   -5.0199    0.0494 C   0  0  0  0  0  0  0  0  0  0  0  0
   -0.1234   -5.8420   -1.7627 C   0  0  0  0  0  0  0  0  0  0  0  0
    1.3081   -2.9579   -2.9272 N   0  0  0  0  0  0  0  0  0  0  0  0
    0.7435   -2.0070   -3.7549 C   0  0  0  0  0  0  0  0  0  0  0  0
    1.4178   -1.3665   -4.9442 C   0  0  0  0  0  0  0  0  0  0  0  0
    0.4148   -0.6360   -5.8417 C   0  0  0  0  0  0  0  0  0  0  0  0
    1.0882    0.1075   -6.9232 C   0  0  0  0  0  0  0  0  0  0  0  0
    2.1576    0.9689   -6.4139 N   0  0  0  0  0  0  0  0  0  0  0  0
    2.2468    2.2771   -6.7946 C   0  0  0  0  0  0  0  0  0  0  0  0
    1.1372    2.8924   -7.3330 C   0  0  0  0  0  0  0  0  0  0  0  0
    0.2313    3.4008   -7.8254 C   0  0  0  0  0  0  0  0  0  0  0  0
   -1.0236    3.7551   -8.3843 C   0  0  0  0  0  0  0  0  0  0  0  0
   -1.4402    2.6894   -9.2374 N   0  0  0  0  0  0  0  0  0  0  0  0
   -2.4967    1.8483   -8.8912 C   0  0  0  0  0  0  0  0  0  0  0  0
   -0.6995    2.3810  -10.3982 C   0  0  0  0  0  0  0  0  0  0  0  0
   -0.9415    5.0353   -9.1692 C   0  0  0  0  0  0  0  0  0  0  0  0
   -2.0346    3.9769   -7.2702 C   0  0  0  0  0  0  0  0  0  0  0  0
    3.2968    2.9172   -6.6182 O   0  0  0  0  0  0  0  0  0  0  0  0
    3.0995    0.3824   -5.4935 C   0  0  0  0  0  0  0  0  0  0  0  0
    2.4069   -0.3424   -4.3943 C   0  0  0  0  0  0  0  0  0  0  0  0
   -0.4118   -1.6335   -3.4790 O   0  0  0  0  0  0  0  0  0  0  0  0
    2.6860   -3.4486   -3.1113 C   0  0  0  0  0  0  0  0  0  0  0  0
    1.7729   -1.7419   -0.5453 O   0  0  0  0  0  0  0  0  0  0  0  0
   -1.6764    0.1493    0.4290 C   0  0  0  0  0  0  0  0  0  0  0  0
   -1.6694    0.7294   -1.0109 C   0  0  0  0  0  0  0  0  0  0  0  0
   -0.7256    1.8877   -1.0395 C   0  0  0  0  0  0  0  0  0  0  0  0
   -0.7163    2.5455   -2.3264 N   0  0  0  0  0  0  0  0  0  0  0  0
   -2.0514    2.9357   -2.8219 C   0  0  0  0  0  0  0  0  0  0  0  0
   -3.0521    1.7752   -2.6695 C   0  0  0  0  0  0  0  0  0  0  0  0
   -3.0085    1.1949   -1.3161 O   0  0  0  0  0  0  0  0  0  0  0  0
   -1.2546   -2.1222    2.5519 O   0  0  0  0  0  0  0  0  0  0  0  0
    0.2330   -0.8236    4.5712 C   0  0  0  0  0  0  0  0  0  0  0  0
    0.0247    0.4553    5.4167 C   0  0  0  0  0  0  0  0  0  0  0  0
    0.9274    1.6017    4.9734 C   0  0  0  0  0  0  0  0  0  0  0  0
    2.1288    3.8312    3.6749 O   0  0  0  0  0  0  0  0  0  0  0  0
    2.7974    3.6410   -2.5410 C   0  0  0  0  0  0  0  0  0  0  0  0
    2.7729    4.5780   -3.5725 C   0  0  0  0  0  0  0  0  0  0  0  0
    1.5236    4.8759   -4.2084 C   0  0  0  0  0  0  0  0  0  0  0  0
    0.3915    4.1684   -3.7740 C   0  0  0  0  0  0  0  0  0  0  0  0
    0.4396    3.2257   -2.7412 C   0  0  0  0  0  0  0  0  0  0  0  0
    1.6658    2.9415   -2.1164 C   0  0  0  0  0  0  0  0  0  0  0  0
    2.0699   -2.3082   -5.7206 F   0  0  0  0  0  0  0  0  0  0  0  0
  1  2  1  0  0  0  0
  2  3  1  0  0  0  0
  2  5  1  0  0  0  0
  3  4  1  0  0  0  0
  5  6  4  0  0  0  0
  5 10  4  0  0  0  0
  6  7  4  0  0  0  0
  7  8  4  0  0  0  0
  8  9  4  0  0  0  0
  9 10  4  0  0  0  0
 10 11  1  0  0  0  0
 11 12  4  0  0  0  0
 11 15  4  0  0  0  0
 12 13  1  0  0  0  0
 12 68  4  0  0  0  0
 13 14  1  0  0  0  0
 15 16  1  0  0  0  0
 15 67  4  0  0  0  0
 16 17  1  0  0  0  0
 17 18  1  0  0  0  0
 17 19  1  0  0  0  0
 17 20  1  0  0  0  0
 20 21  1  0  0  0  0
 21 22  1  0  0  0  0
 22 23  1  0  0  0  0
 22 66  2  0  0  0  0
 23 24  1  0  0  0  0
 23 65  1  0  0  0  0
 24 25  1  0  0  0  0
 25 26  1  0  0  0  0
 25 63  1  0  0  0  0
 26 27  1  0  0  0  0
 26 62  2  0  0  0  0
 27 28  1  0  0  0  0
 27 55  1  0  0  0  0
 28 29  1  0  0  0  0
 29 30  1  0  0  0  0
 29 54  2  0  0  0  0
 30 31  1  0  0  0  0
 30 34  1  0  0  0  0
 31 32  1  0  0  0  0
 31 33  1  0  0  0  0
 34 35  1  0  0  0  0
 34 53  1  0  0  0  0
 35 36  1  0  0  0  0
 35 52  2  0  0  0  0
 36 37  1  0  0  0  0
 36 51  1  0  0  0  0
 36 73  1  0  0  0  0
 37 38  1  0  0  0  0
 38 39  1  0  0  0  0
 39 40  1  0  0  0  0
 39 50  1  0  0  0  0
 40 41  1  0  0  0  0
 40 49  2  0  0  0  0
 41 42  1  0  0  0  0
 42 43  1  0  0  0  0
 43 44  1  0  0  0  0
 43 47  1  0  0  0  0
 43 48  1  0  0  0  0
 44 45  1  0  0  0  0
 44 46  1  0  0  0  0
 50 51  1  0  0  0  0
 55 56  1  0  0  0  0
 56 57  1  0  0  0  0
 56 61  1  0  0  0  0
 57 58  1  0  0  0  0
 58 59  1  0  0  0  0
 58 71  1  0  0  0  0
 59 60  1  0  0  0  0
 60 61  1  0  0  0  0
 63 64  1  0  0  0  0
 64 65  1  0  0  0  0
 67 68  4  0  0  0  0
 67 72  4  0  0  0  0
 68 69  4  0  0  0  0
 69 70  4  0  0  0  0
 70 71  4  0  0  0  0
 71 72  4  0  0  0  0
M  END
$$$$
