mol_ETKDG1_85
  PyMOL3.1          3D                             0

 73 79  0  0  0  0  0  0  0  0999 V2000
   -5.1429    3.7075    4.1905 C   0  0  0  0  0  0  0  0  0  0  0  0
   -4.1642    2.8621    4.9138 C   0  0  0  0  0  0  0  0  0  0  0  0
   -3.9735    3.2973    6.2717 O   0  0  0  0  0  0  0  0  0  0  0  0
   -3.2955    4.4954    6.5013 C   0  0  0  0  0  0  0  0  0  0  0  0
   -4.5115    1.3946    4.9571 C   0  0  0  0  0  0  0  0  0  0  0  0
   -5.2320    0.9752    5.9837 N   0  0  0  0  0  0  0  0  0  0  0  0
   -5.5999   -0.3170    6.1189 C   0  0  0  0  0  0  0  0  0  0  0  0
   -5.2530   -1.2832    5.1740 C   0  0  0  0  0  0  0  0  0  0  0  0
   -4.5008   -0.8733    4.0772 C   0  0  0  0  0  0  0  0  0  0  0  0
   -4.1246    0.4734    3.9710 C   0  0  0  0  0  0  0  0  0  0  0  0
   -3.3524    0.8660    2.8150 C   0  0  0  0  0  0  0  0  0  0  0  0
   -3.9274    1.3054    1.6725 N   0  0  0  0  0  0  0  0  0  0  0  0
   -5.3987    1.3735    1.3592 C   0  0  0  0  0  0  0  0  0  0  0  0
   -5.9403    2.6981    1.0986 C   0  0  0  0  0  0  0  0  0  0  0  0
   -1.9311    0.8076    2.6744 C   0  0  0  0  0  0  0  0  0  0  0  0
   -0.8533    0.1929    3.5226 C   0  0  0  0  0  0  0  0  0  0  0  0
   -0.1015    1.0218    4.6280 C   0  0  0  0  0  0  0  0  0  0  0  0
    0.9765    0.1112    5.2056 C   0  0  0  0  0  0  0  0  0  0  0  0
   -1.0079    1.3077    5.7722 C   0  0  0  0  0  0  0  0  0  0  0  0
    0.5455    2.3089    4.1077 C   0  0  0  0  0  0  0  0  0  0  0  0
    1.9466    2.1920    3.5459 O   0  0  0  0  0  0  0  0  0  0  0  0
    3.0303    3.0984    3.8124 C   0  0  0  0  0  0  0  0  0  0  0  0
    4.3834    2.8828    3.1248 C   0  0  0  0  0  0  0  0  0  0  0  0
    4.5158    1.5139    2.7177 N   0  0  0  0  0  0  0  0  0  0  0  0
    5.7091    1.1106    2.1184 N   0  0  0  0  0  0  0  0  0  0  0  0
    5.7135    0.4842    0.8985 C   0  0  0  0  0  0  0  0  0  0  0  0
    4.4039    0.2941    0.1894 C   0  0  0  0  0  0  0  0  0  0  0  0
    4.3061   -0.9782   -0.5107 N   0  0  0  0  0  0  0  0  0  0  0  0
    3.5882   -2.0313   -0.0773 C   0  0  0  0  0  0  0  0  0  0  0  0
    3.4755   -3.1954   -1.0169 C   0  0  0  0  0  0  0  0  0  0  0  0
    4.4707   -4.3621   -0.7374 C   0  0  0  0  0  0  0  0  0  0  0  0
    4.5291   -5.3626   -1.8446 C   0  0  0  0  0  0  0  0  0  0  0  0
    5.8212   -3.9100   -0.2939 C   0  0  0  0  0  0  0  0  0  0  0  0
    2.0779   -3.6425   -1.0044 N   0  0  0  0  0  0  0  0  0  0  0  0
    1.1761   -3.0160   -1.8438 C   0  0  0  0  0  0  0  0  0  0  0  0
   -0.3005   -3.3284   -1.9114 C   0  0  0  0  0  0  0  0  0  0  0  0
   -0.8903   -3.1610   -3.3170 C   0  0  0  0  0  0  0  0  0  0  0  0
   -2.3656   -3.3827   -3.2875 C   0  0  0  0  0  0  0  0  0  0  0  0
   -3.0034   -2.5593   -2.2379 N   0  0  0  0  0  0  0  0  0  0  0  0
   -4.0756   -1.7526   -2.4702 C   0  0  0  0  0  0  0  0  0  0  0  0
   -4.4939   -1.4707   -3.7513 C   0  0  0  0  0  0  0  0  0  0  0  0
   -4.9525   -1.1928   -4.7629 C   0  0  0  0  0  0  0  0  0  0  0  0
   -5.3412   -0.9228   -6.0982 C   0  0  0  0  0  0  0  0  0  0  0  0
   -6.7086   -0.5306   -6.1498 N   0  0  0  0  0  0  0  0  0  0  0  0
   -7.0741    0.7897   -5.8200 C   0  0  0  0  0  0  0  0  0  0  0  0
   -7.7474   -1.4819   -6.2664 C   0  0  0  0  0  0  0  0  0  0  0  0
   -4.4567    0.1725   -6.6854 C   0  0  0  0  0  0  0  0  0  0  0  0
   -5.1140   -2.1488   -6.9614 C   0  0  0  0  0  0  0  0  0  0  0  0
   -4.6672   -1.2148   -1.5186 O   0  0  0  0  0  0  0  0  0  0  0  0
   -2.4500   -2.6229   -0.9222 C   0  0  0  0  0  0  0  0  0  0  0  0
   -0.9898   -2.3811   -0.9396 C   0  0  0  0  0  0  0  0  0  0  0  0
    1.6081   -2.1012   -2.5745 O   0  0  0  0  0  0  0  0  0  0  0  0
    1.6625   -4.6451   -0.0036 C   0  0  0  0  0  0  0  0  0  0  0  0
    2.9658   -1.9618    0.9694 O   0  0  0  0  0  0  0  0  0  0  0  0
    4.2361    1.4623   -0.8457 C   0  0  0  0  0  0  0  0  0  0  0  0
    2.9140    1.4745   -1.6269 C   0  0  0  0  0  0  0  0  0  0  0  0
    1.8614    1.9459   -0.6994 C   0  0  0  0  0  0  0  0  0  0  0  0
    0.6000    2.1181   -1.3569 N   0  0  0  0  0  0  0  0  0  0  0  0
    0.6431    2.9328   -2.5806 C   0  0  0  0  0  0  0  0  0  0  0  0
    1.8153    2.5210   -3.4788 C   0  0  0  0  0  0  0  0  0  0  0  0
    3.0615    2.4115   -2.7292 O   0  0  0  0  0  0  0  0  0  0  0  0
    6.7719    0.1389    0.3452 O   0  0  0  0  0  0  0  0  0  0  0  0
    6.9226    1.3404    2.9015 C   0  0  0  0  0  0  0  0  0  0  0  0
    6.9354    2.8015    3.4008 C   0  0  0  0  0  0  0  0  0  0  0  0
    5.6022    3.2173    4.0493 C   0  0  0  0  0  0  0  0  0  0  0  0
    2.9160    4.0716    4.5772 O   0  0  0  0  0  0  0  0  0  0  0  0
   -1.7095    1.3122    1.3826 C   0  0  0  0  0  0  0  0  0  0  0  0
   -2.9451    1.5892    0.8034 C   0  0  0  0  0  0  0  0  0  0  0  0
   -3.0039    2.0582   -0.5508 C   0  0  0  0  0  0  0  0  0  0  0  0
   -1.8066    2.2199   -1.2232 C   0  0  0  0  0  0  0  0  0  0  0  0
   -0.5755    1.9472   -0.6304 C   0  0  0  0  0  0  0  0  0  0  0  0
   -0.5156    1.4670    0.6973 C   0  0  0  0  0  0  0  0  0  0  0  0
   -0.5877   -4.6228   -1.5651 F   0  0  0  0  0  0  0  0  0  0  0  0
  1  2  1  0  0  0  0
  2  3  1  0  0  0  0
  2  5  1  0  0  0  0
  3  4  1  0  0  0  0
  5  6  4  0  0  0  0
  5 10  4  0  0  0  0
  6  7  4  0  0  0  0
  7  8  4  0  0  0  0
  8  9  4  0  0  0  0
  9 10  4  0  0  0  0
 10 11  1  0  0  0  0
 11 12  4  0  0  0  0
 11 15  4  0  0  0  0
 12 13  1  0  0  0  0
 12 68  4  0  0  0  0
 13 14  1  0  0  0  0
 15 16  1  0  0  0  0
 15 67  4  0  0  0  0
 16 17  1  0  0  0  0
 17 18  1  0  0  0  0
 17 19  1  0  0  0  0
 17 20  1  0  0  0  0
 20 21  1  0  0  0  0
 21 22  1  0  0  0  0
 22 23  1  0  0  0  0
 22 66  2  0  0  0  0
 23 24  1  0  0  0  0
 23 65  1  0  0  0  0
 24 25  1  0  0  0  0
 25 26  1  0  0  0  0
 25 63  1  0  0  0  0
 26 27  1  0  0  0  0
 26 62  2  0  0  0  0
 27 28  1  0  0  0  0
 27 55  1  0  0  0  0
 28 29  1  0  0  0  0
 29 30  1  0  0  0  0
 29 54  2  0  0  0  0
 30 31  1  0  0  0  0
 30 34  1  0  0  0  0
 31 32  1  0  0  0  0
 31 33  1  0  0  0  0
 34 35  1  0  0  0  0
 34 53  1  0  0  0  0
 35 36  1  0  0  0  0
 35 52  2  0  0  0  0
 36 37  1  0  0  0  0
 36 51  1  0  0  0  0
 36 73  1  0  0  0  0
 37 38  1  0  0  0  0
 38 39  1  0  0  0  0
 39 40  1  0  0  0  0
 39 50  1  0  0  0  0
 40 41  1  0  0  0  0
 40 49  2  0  0  0  0
 41 42  1  0  0  0  0
 42 43  1  0  0  0  0
 43 44  1  0  0  0  0
 43 47  1  0  0  0  0
 43 48  1  0  0  0  0
 44 45  1  0  0  0  0
 44 46  1  0  0  0  0
 50 51  1  0  0  0  0
 55 56  1  0  0  0  0
 56 57  1  0  0  0  0
 56 61  1  0  0  0  0
 57 58  1  0  0  0  0
 58 59  1  0  0  0  0
 58 71  1  0  0  0  0
 59 60  1  0  0  0  0
 60 61  1  0  0  0  0
 63 64  1  0  0  0  0
 64 65  1  0  0  0  0
 67 68  4  0  0  0  0
 67 72  4  0  0  0  0
 68 69  4  0  0  0  0
 69 70  4  0  0  0  0
 70 71  4  0  0  0  0
 71 72  4  0  0  0  0
M  END
$$$$
