mol_ETKDG5_296
  PyMOL3.1          3D                             0

 73 79  0  0  0  0  0  0  0  0999 V2000
   -4.2860   -4.9850    2.2833 C   0  0  0  0  0  0  0  0  0  0  0  0
   -4.9611   -5.1380    0.9902 C   0  0  0  0  0  0  0  0  0  0  0  0
   -6.3207   -5.5756    1.1105 O   0  0  0  0  0  0  0  0  0  0  0  0
   -7.2410   -4.6188    1.5775 C   0  0  0  0  0  0  0  0  0  0  0  0
   -4.2548   -6.0723    0.0853 C   0  0  0  0  0  0  0  0  0  0  0  0
   -4.4966   -7.3651    0.2237 N   0  0  0  0  0  0  0  0  0  0  0  0
   -3.9222   -8.2794   -0.5827 C   0  0  0  0  0  0  0  0  0  0  0  0
   -3.0164   -7.9073   -1.5780 C   0  0  0  0  0  0  0  0  0  0  0  0
   -2.7324   -6.5469   -1.7328 C   0  0  0  0  0  0  0  0  0  0  0  0
   -3.3422   -5.6294   -0.8673 C   0  0  0  0  0  0  0  0  0  0  0  0
   -3.0085   -4.2335   -1.0236 C   0  0  0  0  0  0  0  0  0  0  0  0
   -3.6399   -3.4269   -1.9024 N   0  0  0  0  0  0  0  0  0  0  0  0
   -4.7864   -3.7860   -2.8087 C   0  0  0  0  0  0  0  0  0  0  0  0
   -4.3766   -3.9853   -4.2002 C   0  0  0  0  0  0  0  0  0  0  0  0
   -2.0540   -3.4994   -0.2689 C   0  0  0  0  0  0  0  0  0  0  0  0
   -1.2164   -3.8958    0.9164 C   0  0  0  0  0  0  0  0  0  0  0  0
    0.1978   -4.5051    0.6110 C   0  0  0  0  0  0  0  0  0  0  0  0
    0.8322   -4.8857    1.9430 C   0  0  0  0  0  0  0  0  0  0  0  0
    0.1280   -5.7896   -0.1332 C   0  0  0  0  0  0  0  0  0  0  0  0
    1.0325   -3.4958   -0.1573 C   0  0  0  0  0  0  0  0  0  0  0  0
    1.6696   -2.4474    0.7296 O   0  0  0  0  0  0  0  0  0  0  0  0
    3.0818   -2.2968    0.9064 C   0  0  0  0  0  0  0  0  0  0  0  0
    3.5965   -1.1833    1.8078 C   0  0  0  0  0  0  0  0  0  0  0  0
    2.6388   -0.8816    2.8257 N   0  0  0  0  0  0  0  0  0  0  0  0
    2.9974    0.0753    3.7796 N   0  0  0  0  0  0  0  0  0  0  0  0
    2.2129    1.1631    4.0166 C   0  0  0  0  0  0  0  0  0  0  0  0
    0.9686    1.3304    3.2071 C   0  0  0  0  0  0  0  0  0  0  0  0
   -0.1257    1.8413    4.0007 N   0  0  0  0  0  0  0  0  0  0  0  0
   -1.1039    1.0642    4.4696 C   0  0  0  0  0  0  0  0  0  0  0  0
   -2.2497    1.7666    5.1013 C   0  0  0  0  0  0  0  0  0  0  0  0
   -2.2240    1.7925    6.6626 C   0  0  0  0  0  0  0  0  0  0  0  0
   -3.2019    2.7605    7.2422 C   0  0  0  0  0  0  0  0  0  0  0  0
   -0.8534    1.9356    7.2384 C   0  0  0  0  0  0  0  0  0  0  0  0
   -3.4630    1.1550    4.5629 N   0  0  0  0  0  0  0  0  0  0  0  0
   -3.9273    1.5896    3.3424 C   0  0  0  0  0  0  0  0  0  0  0  0
   -5.1206    1.0221    2.6181 C   0  0  0  0  0  0  0  0  0  0  0  0
   -5.7431    2.0014    1.6221 C   0  0  0  0  0  0  0  0  0  0  0  0
   -6.8467    1.3638    0.8720 C   0  0  0  0  0  0  0  0  0  0  0  0
   -6.4711    0.0512    0.3217 N   0  0  0  0  0  0  0  0  0  0  0  0
   -6.7960   -0.3502   -0.9318 C   0  0  0  0  0  0  0  0  0  0  0  0
   -7.3008    0.5220   -1.8692 C   0  0  0  0  0  0  0  0  0  0  0  0
   -7.8027    1.1233   -2.7238 C   0  0  0  0  0  0  0  0  0  0  0  0
   -8.3719    2.0033   -3.6570 C   0  0  0  0  0  0  0  0  0  0  0  0
   -9.6738    1.5852   -4.0767 N   0  0  0  0  0  0  0  0  0  0  0  0
   -9.9696    0.2171   -4.2055 C   0  0  0  0  0  0  0  0  0  0  0  0
  -10.5634    2.4713   -4.7108 C   0  0  0  0  0  0  0  0  0  0  0  0
   -8.4481    3.3687   -3.0085 C   0  0  0  0  0  0  0  0  0  0  0  0
   -7.4650    2.1138   -4.8800 C   0  0  0  0  0  0  0  0  0  0  0  0
   -6.6133   -1.5329   -1.2562 O   0  0  0  0  0  0  0  0  0  0  0  0
   -5.7601   -0.8521    1.1689 C   0  0  0  0  0  0  0  0  0  0  0  0
   -4.6423   -0.2139    1.8695 C   0  0  0  0  0  0  0  0  0  0  0  0
   -3.2940    2.5020    2.7857 O   0  0  0  0  0  0  0  0  0  0  0  0
   -4.0645    0.0166    5.2839 C   0  0  0  0  0  0  0  0  0  0  0  0
   -1.0880   -0.1414    4.2709 O   0  0  0  0  0  0  0  0  0  0  0  0
    1.2328    2.3143    2.0093 C   0  0  0  0  0  0  0  0  0  0  0  0
    0.0308    2.4787    1.0477 C   0  0  0  0  0  0  0  0  0  0  0  0
   -0.0453    1.2382    0.2421 C   0  0  0  0  0  0  0  0  0  0  0  0
   -1.0724    1.3049   -0.7587 N   0  0  0  0  0  0  0  0  0  0  0  0
   -1.0308    2.4878   -1.6243 C   0  0  0  0  0  0  0  0  0  0  0  0
   -0.8052    3.7654   -0.8023 C   0  0  0  0  0  0  0  0  0  0  0  0
    0.2895    3.6080    0.1702 O   0  0  0  0  0  0  0  0  0  0  0  0
    2.5221    2.0286    4.8554 O   0  0  0  0  0  0  0  0  0  0  0  0
    4.2079   -0.2079    4.5403 C   0  0  0  0  0  0  0  0  0  0  0  0
    5.3456   -0.5375    3.5543 C   0  0  0  0  0  0  0  0  0  0  0  0
    4.9295   -1.5807    2.5198 C   0  0  0  0  0  0  0  0  0  0  0  0
    3.9415   -3.0238    0.3562 O   0  0  0  0  0  0  0  0  0  0  0  0
   -2.1282   -2.2053   -0.8128 C   0  0  0  0  0  0  0  0  0  0  0  0
   -3.1093   -2.2036   -1.7995 C   0  0  0  0  0  0  0  0  0  0  0  0
   -3.4240   -0.9842   -2.4818 C   0  0  0  0  0  0  0  0  0  0  0  0
   -2.7250    0.1587   -2.1020 C   0  0  0  0  0  0  0  0  0  0  0  0
   -1.7422    0.1380   -1.1138 C   0  0  0  0  0  0  0  0  0  0  0  0
   -1.4273   -1.0623   -0.4485 C   0  0  0  0  0  0  0  0  0  0  0  0
   -6.1271    0.6804    3.4931 F   0  0  0  0  0  0  0  0  0  0  0  0
  1  2  1  0  0  0  0
  2  3  1  0  0  0  0
  2  5  1  0  0  0  0
  3  4  1  0  0  0  0
  5  6  4  0  0  0  0
  5 10  4  0  0  0  0
  6  7  4  0  0  0  0
  7  8  4  0  0  0  0
  8  9  4  0  0  0  0
  9 10  4  0  0  0  0
 10 11  1  0  0  0  0
 11 12  4  0  0  0  0
 11 15  4  0  0  0  0
 12 13  1  0  0  0  0
 12 68  4  0  0  0  0
 13 14  1  0  0  0  0
 15 16  1  0  0  0  0
 15 67  4  0  0  0  0
 16 17  1  0  0  0  0
 17 18  1  0  0  0  0
 17 19  1  0  0  0  0
 17 20  1  0  0  0  0
 20 21  1  0  0  0  0
 21 22  1  0  0  0  0
 22 23  1  0  0  0  0
 22 66  2  0  0  0  0
 23 24  1  0  0  0  0
 23 65  1  0  0  0  0
 24 25  1  0  0  0  0
 25 26  1  0  0  0  0
 25 63  1  0  0  0  0
 26 27  1  0  0  0  0
 26 62  2  0  0  0  0
 27 28  1  0  0  0  0
 27 55  1  0  0  0  0
 28 29  1  0  0  0  0
 29 30  1  0  0  0  0
 29 54  2  0  0  0  0
 30 31  1  0  0  0  0
 30 34  1  0  0  0  0
 31 32  1  0  0  0  0
 31 33  1  0  0  0  0
 34 35  1  0  0  0  0
 34 53  1  0  0  0  0
 35 36  1  0  0  0  0
 35 52  2  0  0  0  0
 36 37  1  0  0  0  0
 36 51  1  0  0  0  0
 36 73  1  0  0  0  0
 37 38  1  0  0  0  0
 38 39  1  0  0  0  0
 39 40  1  0  0  0  0
 39 50  1  0  0  0  0
 40 41  1  0  0  0  0
 40 49  2  0  0  0  0
 41 42  1  0  0  0  0
 42 43  1  0  0  0  0
 43 44  1  0  0  0  0
 43 47  1  0  0  0  0
 43 48  1  0  0  0  0
 44 45  1  0  0  0  0
 44 46  1  0  0  0  0
 50 51  1  0  0  0  0
 55 56  1  0  0  0  0
 56 57  1  0  0  0  0
 56 61  1  0  0  0  0
 57 58  1  0  0  0  0
 58 59  1  0  0  0  0
 58 71  1  0  0  0  0
 59 60  1  0  0  0  0
 60 61  1  0  0  0  0
 63 64  1  0  0  0  0
 64 65  1  0  0  0  0
 67 68  4  0  0  0  0
 67 72  4  0  0  0  0
 68 69  4  0  0  0  0
 69 70  4  0  0  0  0
 70 71  4  0  0  0  0
 71 72  4  0  0  0  0
M  END
$$$$
