mol_ETKDG4_239
  PyMOL3.1          3D                             0

 73 79  0  0  0  0  0  0  0  0999 V2000
   -0.9980   -2.2798    3.0722 C   0  0  0  0  0  0  0  0  0  0  0  0
   -0.3674   -1.7245    4.2741 C   0  0  0  0  0  0  0  0  0  0  0  0
   -0.7141   -2.4146    5.4826 O   0  0  0  0  0  0  0  0  0  0  0  0
   -1.9680   -2.1296    6.0336 C   0  0  0  0  0  0  0  0  0  0  0  0
    1.1088   -1.6953    4.1821 C   0  0  0  0  0  0  0  0  0  0  0  0
    1.7713   -2.8023    4.4684 N   0  0  0  0  0  0  0  0  0  0  0  0
    3.1216   -2.8414    4.4513 C   0  0  0  0  0  0  0  0  0  0  0  0
    3.8804   -1.7260    4.1036 C   0  0  0  0  0  0  0  0  0  0  0  0
    3.2023   -0.5480    3.7846 C   0  0  0  0  0  0  0  0  0  0  0  0
    1.7986   -0.5515    3.8038 C   0  0  0  0  0  0  0  0  0  0  0  0
    1.1314    0.6678    3.4316 C   0  0  0  0  0  0  0  0  0  0  0  0
    0.8240    1.6379    4.3152 N   0  0  0  0  0  0  0  0  0  0  0  0
    1.0489    1.6263    5.8022 C   0  0  0  0  0  0  0  0  0  0  0  0
    2.1802    2.4727    6.2044 C   0  0  0  0  0  0  0  0  0  0  0  0
    0.6539    1.0136    2.1410 C   0  0  0  0  0  0  0  0  0  0  0  0
    0.5471    0.2183    0.8874 C   0  0  0  0  0  0  0  0  0  0  0  0
    1.7645    0.2328   -0.0957 C   0  0  0  0  0  0  0  0  0  0  0  0
    1.2791   -0.3545   -1.4000 C   0  0  0  0  0  0  0  0  0  0  0  0
    2.8469   -0.6935    0.3584 C   0  0  0  0  0  0  0  0  0  0  0  0
    2.3090    1.6225   -0.3102 C   0  0  0  0  0  0  0  0  0  0  0  0
    1.7823    2.3518   -1.5254 O   0  0  0  0  0  0  0  0  0  0  0  0
    2.6079    2.9821   -2.4929 C   0  0  0  0  0  0  0  0  0  0  0  0
    1.9476    3.6794   -3.6671 C   0  0  0  0  0  0  0  0  0  0  0  0
    0.6444    3.1242   -3.9080 N   0  0  0  0  0  0  0  0  0  0  0  0
   -0.0609    3.6149   -4.9989 N   0  0  0  0  0  0  0  0  0  0  0  0
   -1.3162    4.1233   -4.8569 C   0  0  0  0  0  0  0  0  0  0  0  0
   -1.9299    4.1621   -3.4906 C   0  0  0  0  0  0  0  0  0  0  0  0
   -3.3607    3.9728   -3.5306 N   0  0  0  0  0  0  0  0  0  0  0  0
   -3.9790    2.8536   -3.1488 C   0  0  0  0  0  0  0  0  0  0  0  0
   -5.4584    2.9212   -3.0896 C   0  0  0  0  0  0  0  0  0  0  0  0
   -6.2089    2.3779   -4.3232 C   0  0  0  0  0  0  0  0  0  0  0  0
   -7.6007    2.8872   -4.4373 C   0  0  0  0  0  0  0  0  0  0  0  0
   -5.4415    2.4240   -5.5928 C   0  0  0  0  0  0  0  0  0  0  0  0
   -5.8902    2.2984   -1.8491 N   0  0  0  0  0  0  0  0  0  0  0  0
   -5.8551    3.0490   -0.6961 C   0  0  0  0  0  0  0  0  0  0  0  0
   -6.2596    2.5476    0.6672 C   0  0  0  0  0  0  0  0  0  0  0  0
   -6.4704    3.6979    1.6679 C   0  0  0  0  0  0  0  0  0  0  0  0
   -6.7507    3.1794    3.0469 C   0  0  0  0  0  0  0  0  0  0  0  0
   -5.7274    2.1870    3.4407 N   0  0  0  0  0  0  0  0  0  0  0  0
   -4.9882    2.2452    4.5901 C   0  0  0  0  0  0  0  0  0  0  0  0
   -4.7099    3.4245    5.2673 C   0  0  0  0  0  0  0  0  0  0  0  0
   -4.4350    4.3277    5.9408 C   0  0  0  0  0  0  0  0  0  0  0  0
   -4.1852    5.5071    6.6567 C   0  0  0  0  0  0  0  0  0  0  0  0
   -5.3512    5.8799    7.3736 N   0  0  0  0  0  0  0  0  0  0  0  0
   -6.1651    6.9458    6.9616 C   0  0  0  0  0  0  0  0  0  0  0  0
   -5.7968    5.0965    8.4530 C   0  0  0  0  0  0  0  0  0  0  0  0
   -3.0313    5.3371    7.6157 C   0  0  0  0  0  0  0  0  0  0  0  0
   -3.7722    6.5996    5.6910 C   0  0  0  0  0  0  0  0  0  0  0  0
   -4.4654    1.2080    5.0214 O   0  0  0  0  0  0  0  0  0  0  0  0
   -5.5104    1.1115    2.5274 C   0  0  0  0  0  0  0  0  0  0  0  0
   -5.1438    1.6609    1.1796 C   0  0  0  0  0  0  0  0  0  0  0  0
   -5.4535    4.2224   -0.7916 O   0  0  0  0  0  0  0  0  0  0  0  0
   -6.2339    0.8614   -1.8585 C   0  0  0  0  0  0  0  0  0  0  0  0
   -3.3418    1.8884   -2.7568 O   0  0  0  0  0  0  0  0  0  0  0  0
   -1.6495    5.5764   -2.8538 C   0  0  0  0  0  0  0  0  0  0  0  0
   -2.1771    5.7361   -1.4138 C   0  0  0  0  0  0  0  0  0  0  0  0
   -1.1745    5.1104   -0.5183 C   0  0  0  0  0  0  0  0  0  0  0  0
   -1.5332    5.2737    0.8686 N   0  0  0  0  0  0  0  0  0  0  0  0
   -1.7820    6.6812    1.2521 C   0  0  0  0  0  0  0  0  0  0  0  0
   -2.7326    7.3502    0.2583 C   0  0  0  0  0  0  0  0  0  0  0  0
   -2.2749    7.1510   -1.1202 O   0  0  0  0  0  0  0  0  0  0  0  0
   -1.9341    4.5991   -5.8215 O   0  0  0  0  0  0  0  0  0  0  0  0
    0.6019    3.4908   -6.2916 C   0  0  0  0  0  0  0  0  0  0  0  0
    2.0212    4.0835   -6.1829 C   0  0  0  0  0  0  0  0  0  0  0  0
    2.7792    3.5383   -4.9760 C   0  0  0  0  0  0  0  0  0  0  0  0
    3.8605    3.0169   -2.4495 O   0  0  0  0  0  0  0  0  0  0  0  0
    0.1311    2.3029    2.3064 C   0  0  0  0  0  0  0  0  0  0  0  0
    0.2310    2.6363    3.6486 C   0  0  0  0  0  0  0  0  0  0  0  0
   -0.2928    3.8934    4.0970 C   0  0  0  0  0  0  0  0  0  0  0  0
   -0.8676    4.7332    3.1419 C   0  0  0  0  0  0  0  0  0  0  0  0
   -0.9441    4.3951    1.7946 C   0  0  0  0  0  0  0  0  0  0  0  0
   -0.4628    3.1399    1.3628 C   0  0  0  0  0  0  0  0  0  0  0  0
   -7.4465    1.8474    0.5972 F   0  0  0  0  0  0  0  0  0  0  0  0
  1  2  1  0  0  0  0
  2  3  1  0  0  0  0
  2  5  1  0  0  0  0
  3  4  1  0  0  0  0
  5  6  4  0  0  0  0
  5 10  4  0  0  0  0
  6  7  4  0  0  0  0
  7  8  4  0  0  0  0
  8  9  4  0  0  0  0
  9 10  4  0  0  0  0
 10 11  1  0  0  0  0
 11 12  4  0  0  0  0
 11 15  4  0  0  0  0
 12 13  1  0  0  0  0
 12 68  4  0  0  0  0
 13 14  1  0  0  0  0
 15 16  1  0  0  0  0
 15 67  4  0  0  0  0
 16 17  1  0  0  0  0
 17 18  1  0  0  0  0
 17 19  1  0  0  0  0
 17 20  1  0  0  0  0
 20 21  1  0  0  0  0
 21 22  1  0  0  0  0
 22 23  1  0  0  0  0
 22 66  2  0  0  0  0
 23 24  1  0  0  0  0
 23 65  1  0  0  0  0
 24 25  1  0  0  0  0
 25 26  1  0  0  0  0
 25 63  1  0  0  0  0
 26 27  1  0  0  0  0
 26 62  2  0  0  0  0
 27 28  1  0  0  0  0
 27 55  1  0  0  0  0
 28 29  1  0  0  0  0
 29 30  1  0  0  0  0
 29 54  2  0  0  0  0
 30 31  1  0  0  0  0
 30 34  1  0  0  0  0
 31 32  1  0  0  0  0
 31 33  1  0  0  0  0
 34 35  1  0  0  0  0
 34 53  1  0  0  0  0
 35 36  1  0  0  0  0
 35 52  2  0  0  0  0
 36 37  1  0  0  0  0
 36 51  1  0  0  0  0
 36 73  1  0  0  0  0
 37 38  1  0  0  0  0
 38 39  1  0  0  0  0
 39 40  1  0  0  0  0
 39 50  1  0  0  0  0
 40 41  1  0  0  0  0
 40 49  2  0  0  0  0
 41 42  1  0  0  0  0
 42 43  1  0  0  0  0
 43 44  1  0  0  0  0
 43 47  1  0  0  0  0
 43 48  1  0  0  0  0
 44 45  1  0  0  0  0
 44 46  1  0  0  0  0
 50 51  1  0  0  0  0
 55 56  1  0  0  0  0
 56 57  1  0  0  0  0
 56 61  1  0  0  0  0
 57 58  1  0  0  0  0
 58 59  1  0  0  0  0
 58 71  1  0  0  0  0
 59 60  1  0  0  0  0
 60 61  1  0  0  0  0
 63 64  1  0  0  0  0
 64 65  1  0  0  0  0
 67 68  4  0  0  0  0
 67 72  4  0  0  0  0
 68 69  4  0  0  0  0
 69 70  4  0  0  0  0
 70 71  4  0  0  0  0
 71 72  4  0  0  0  0
M  END
$$$$
