mol_ETKDG5_276
  PyMOL3.1          3D                             0

 73 79  0  0  0  0  0  0  0  0999 V2000
   -7.5513    0.5554    1.2564 C   0  0  0  0  0  0  0  0  0  0  0  0
   -6.2406    1.1915    0.9526 C   0  0  0  0  0  0  0  0  0  0  0  0
   -5.9612    1.4055   -0.4126 O   0  0  0  0  0  0  0  0  0  0  0  0
   -5.6022    0.2862   -1.1973 C   0  0  0  0  0  0  0  0  0  0  0  0
   -6.0489    2.4822    1.6434 C   0  0  0  0  0  0  0  0  0  0  0  0
   -6.8240    3.4973    1.2948 N   0  0  0  0  0  0  0  0  0  0  0  0
   -6.7446    4.6928    1.9230 C   0  0  0  0  0  0  0  0  0  0  0  0
   -5.8542    4.9051    2.9843 C   0  0  0  0  0  0  0  0  0  0  0  0
   -5.0320    3.8405    3.3743 C   0  0  0  0  0  0  0  0  0  0  0  0
   -5.1167    2.6304    2.6714 C   0  0  0  0  0  0  0  0  0  0  0  0
   -4.2316    1.5479    3.0379 C   0  0  0  0  0  0  0  0  0  0  0  0
   -4.4934    0.6761    4.0383 N   0  0  0  0  0  0  0  0  0  0  0  0
   -5.6568    0.7174    4.9959 C   0  0  0  0  0  0  0  0  0  0  0  0
   -6.5472   -0.4235    5.0215 C   0  0  0  0  0  0  0  0  0  0  0  0
   -3.0158    1.2074    2.3765 C   0  0  0  0  0  0  0  0  0  0  0  0
   -2.3417    1.8121    1.1757 C   0  0  0  0  0  0  0  0  0  0  0  0
   -1.3027    2.9905    1.4446 C   0  0  0  0  0  0  0  0  0  0  0  0
   -1.9871    4.3091    1.7740 C   0  0  0  0  0  0  0  0  0  0  0  0
   -0.5853    3.2403    0.1523 C   0  0  0  0  0  0  0  0  0  0  0  0
   -0.2973    2.6745    2.5433 C   0  0  0  0  0  0  0  0  0  0  0  0
    1.0042    2.0966    2.0494 O   0  0  0  0  0  0  0  0  0  0  0  0
    2.3008    2.5047    2.4729 C   0  0  0  0  0  0  0  0  0  0  0  0
    3.5245    1.8284    1.8723 C   0  0  0  0  0  0  0  0  0  0  0  0
    3.1599    1.0821    0.6990 N   0  0  0  0  0  0  0  0  0  0  0  0
    4.1826    0.4356    0.0065 N   0  0  0  0  0  0  0  0  0  0  0  0
    4.1259   -0.9121   -0.2426 C   0  0  0  0  0  0  0  0  0  0  0  0
    2.9374   -1.6801    0.2541 C   0  0  0  0  0  0  0  0  0  0  0  0
    2.5429   -2.7372   -0.6538 N   0  0  0  0  0  0  0  0  0  0  0  0
    1.4581   -2.6566   -1.4309 C   0  0  0  0  0  0  0  0  0  0  0  0
    1.0569   -3.9008   -2.1502 C   0  0  0  0  0  0  0  0  0  0  0  0
    1.5160   -4.0045   -3.6350 C   0  0  0  0  0  0  0  0  0  0  0  0
    1.4940   -5.4128   -4.1484 C   0  0  0  0  0  0  0  0  0  0  0  0
    2.7792   -3.2835   -3.9436 C   0  0  0  0  0  0  0  0  0  0  0  0
   -0.4022   -4.0047   -2.0031 N   0  0  0  0  0  0  0  0  0  0  0  0
   -0.9080   -4.5310   -0.8284 C   0  0  0  0  0  0  0  0  0  0  0  0
   -2.3744   -4.6124   -0.4717 C   0  0  0  0  0  0  0  0  0  0  0  0
   -2.6511   -5.5700    0.7019 C   0  0  0  0  0  0  0  0  0  0  0  0
   -4.0857   -5.5322    1.1143 C   0  0  0  0  0  0  0  0  0  0  0  0
   -4.5473   -4.1474    1.3218 N   0  0  0  0  0  0  0  0  0  0  0  0
   -5.2147   -3.7314    2.4393 C   0  0  0  0  0  0  0  0  0  0  0  0
   -5.2321   -4.4823    3.6015 C   0  0  0  0  0  0  0  0  0  0  0  0
   -5.3533   -5.0612    4.6101 C   0  0  0  0  0  0  0  0  0  0  0  0
   -5.4227   -5.9004    5.7326 C   0  0  0  0  0  0  0  0  0  0  0  0
   -6.7653   -6.3244    5.9655 N   0  0  0  0  0  0  0  0  0  0  0  0
   -7.0675   -7.5896    6.4924 C   0  0  0  0  0  0  0  0  0  0  0  0
   -7.8239   -5.3868    5.9413 C   0  0  0  0  0  0  0  0  0  0  0  0
   -4.8954   -5.1832    6.9748 C   0  0  0  0  0  0  0  0  0  0  0  0
   -4.5155   -7.0900    5.4900 C   0  0  0  0  0  0  0  0  0  0  0  0
   -5.7824   -2.6276    2.4351 O   0  0  0  0  0  0  0  0  0  0  0  0
   -4.2582   -3.2036    0.2846 C   0  0  0  0  0  0  0  0  0  0  0  0
   -2.8100   -3.2113   -0.0633 C   0  0  0  0  0  0  0  0  0  0  0  0
   -0.0871   -4.9419    0.0169 O   0  0  0  0  0  0  0  0  0  0  0  0
   -1.2642   -3.4184   -3.0488 C   0  0  0  0  0  0  0  0  0  0  0  0
    0.7716   -1.6474   -1.4213 O   0  0  0  0  0  0  0  0  0  0  0  0
    3.2297   -2.3154    1.6721 C   0  0  0  0  0  0  0  0  0  0  0  0
    2.0055   -3.0467    2.2855 C   0  0  0  0  0  0  0  0  0  0  0  0
    1.0888   -2.0099    2.8394 C   0  0  0  0  0  0  0  0  0  0  0  0
   -0.0542   -2.6088    3.4974 N   0  0  0  0  0  0  0  0  0  0  0  0
    0.3086   -3.6129    4.5247 C   0  0  0  0  0  0  0  0  0  0  0  0
    1.3345   -4.6115    3.9682 C   0  0  0  0  0  0  0  0  0  0  0  0
    2.4705   -3.9185    3.3411 O   0  0  0  0  0  0  0  0  0  0  0  0
    5.0433   -1.5116   -0.8275 O   0  0  0  0  0  0  0  0  0  0  0  0
    5.2598    1.3025   -0.4716 C   0  0  0  0  0  0  0  0  0  0  0  0
    5.7732    2.1705    0.7004 C   0  0  0  0  0  0  0  0  0  0  0  0
    4.6311    2.8493    1.4697 C   0  0  0  0  0  0  0  0  0  0  0  0
    2.4965    3.3946    3.3264 O   0  0  0  0  0  0  0  0  0  0  0  0
   -2.5678    0.0710    3.0701 C   0  0  0  0  0  0  0  0  0  0  0  0
   -3.5065   -0.2403    4.0478 C   0  0  0  0  0  0  0  0  0  0  0  0
   -3.3028   -1.3983    4.8628 C   0  0  0  0  0  0  0  0  0  0  0  0
   -2.1622   -2.1661    4.6314 C   0  0  0  0  0  0  0  0  0  0  0  0
   -1.2106   -1.8253    3.6655 C   0  0  0  0  0  0  0  0  0  0  0  0
   -1.4183   -0.6912    2.8461 C   0  0  0  0  0  0  0  0  0  0  0  0
   -3.1313   -5.0622   -1.5411 F   0  0  0  0  0  0  0  0  0  0  0  0
  1  2  1  0  0  0  0
  2  3  1  0  0  0  0
  2  5  1  0  0  0  0
  3  4  1  0  0  0  0
  5  6  4  0  0  0  0
  5 10  4  0  0  0  0
  6  7  4  0  0  0  0
  7  8  4  0  0  0  0
  8  9  4  0  0  0  0
  9 10  4  0  0  0  0
 10 11  1  0  0  0  0
 11 12  4  0  0  0  0
 11 15  4  0  0  0  0
 12 13  1  0  0  0  0
 12 68  4  0  0  0  0
 13 14  1  0  0  0  0
 15 16  1  0  0  0  0
 15 67  4  0  0  0  0
 16 17  1  0  0  0  0
 17 18  1  0  0  0  0
 17 19  1  0  0  0  0
 17 20  1  0  0  0  0
 20 21  1  0  0  0  0
 21 22  1  0  0  0  0
 22 23  1  0  0  0  0
 22 66  2  0  0  0  0
 23 24  1  0  0  0  0
 23 65  1  0  0  0  0
 24 25  1  0  0  0  0
 25 26  1  0  0  0  0
 25 63  1  0  0  0  0
 26 27  1  0  0  0  0
 26 62  2  0  0  0  0
 27 28  1  0  0  0  0
 27 55  1  0  0  0  0
 28 29  1  0  0  0  0
 29 30  1  0  0  0  0
 29 54  2  0  0  0  0
 30 31  1  0  0  0  0
 30 34  1  0  0  0  0
 31 32  1  0  0  0  0
 31 33  1  0  0  0  0
 34 35  1  0  0  0  0
 34 53  1  0  0  0  0
 35 36  1  0  0  0  0
 35 52  2  0  0  0  0
 36 37  1  0  0  0  0
 36 51  1  0  0  0  0
 36 73  1  0  0  0  0
 37 38  1  0  0  0  0
 38 39  1  0  0  0  0
 39 40  1  0  0  0  0
 39 50  1  0  0  0  0
 40 41  1  0  0  0  0
 40 49  2  0  0  0  0
 41 42  1  0  0  0  0
 42 43  1  0  0  0  0
 43 44  1  0  0  0  0
 43 47  1  0  0  0  0
 43 48  1  0  0  0  0
 44 45  1  0  0  0  0
 44 46  1  0  0  0  0
 50 51  1  0  0  0  0
 55 56  1  0  0  0  0
 56 57  1  0  0  0  0
 56 61  1  0  0  0  0
 57 58  1  0  0  0  0
 58 59  1  0  0  0  0
 58 71  1  0  0  0  0
 59 60  1  0  0  0  0
 60 61  1  0  0  0  0
 63 64  1  0  0  0  0
 64 65  1  0  0  0  0
 67 68  4  0  0  0  0
 67 72  4  0  0  0  0
 68 69  4  0  0  0  0
 69 70  4  0  0  0  0
 70 71  4  0  0  0  0
 71 72  4  0  0  0  0
M  END
$$$$
