mol_ETKDG3_176
  PyMOL3.1          3D                             0

 73 79  0  0  0  0  0  0  0  0999 V2000
    1.0365    5.1044    0.3880 C   0  0  0  0  0  0  0  0  0  0  0  0
    1.7714    3.9934    1.0566 C   0  0  0  0  0  0  0  0  0  0  0  0
    2.0306    4.2133    2.4435 O   0  0  0  0  0  0  0  0  0  0  0  0
    0.9786    3.9415    3.3389 C   0  0  0  0  0  0  0  0  0  0  0  0
    3.0665    3.6962    0.4144 C   0  0  0  0  0  0  0  0  0  0  0  0
    4.0764    4.5060    0.6773 N   0  0  0  0  0  0  0  0  0  0  0  0
    5.2866    4.3346    0.1003 C   0  0  0  0  0  0  0  0  0  0  0  0
    5.5263    3.3036   -0.8052 C   0  0  0  0  0  0  0  0  0  0  0  0
    4.4732    2.4408   -1.1117 C   0  0  0  0  0  0  0  0  0  0  0  0
    3.2395    2.6356   -0.4820 C   0  0  0  0  0  0  0  0  0  0  0  0
    2.1871    1.6960   -0.7786 C   0  0  0  0  0  0  0  0  0  0  0  0
    1.4951    1.6798   -1.9510 N   0  0  0  0  0  0  0  0  0  0  0  0
    1.6778    2.5748   -3.1527 C   0  0  0  0  0  0  0  0  0  0  0  0
    0.7398    3.7189   -3.2175 C   0  0  0  0  0  0  0  0  0  0  0  0
    1.7167    0.6860    0.0894 C   0  0  0  0  0  0  0  0  0  0  0  0
    2.0932    0.3513    1.5060 C   0  0  0  0  0  0  0  0  0  0  0  0
    3.3477   -0.6065    1.6750 C   0  0  0  0  0  0  0  0  0  0  0  0
    4.6646    0.0533    1.3053 C   0  0  0  0  0  0  0  0  0  0  0  0
    3.4789   -0.9053    3.1384 C   0  0  0  0  0  0  0  0  0  0  0  0
    3.1953   -1.8814    0.8635 C   0  0  0  0  0  0  0  0  0  0  0  0
    2.4902   -2.9883    1.6027 O   0  0  0  0  0  0  0  0  0  0  0  0
    3.0156   -4.2988    1.7934 C   0  0  0  0  0  0  0  0  0  0  0  0
    2.1820   -5.3069    2.5659 C   0  0  0  0  0  0  0  0  0  0  0  0
    1.2561   -4.6298    3.4252 N   0  0  0  0  0  0  0  0  0  0  0  0
    0.4397   -5.4144    4.2367 N   0  0  0  0  0  0  0  0  0  0  0  0
   -0.9263   -5.2949    4.2197 C   0  0  0  0  0  0  0  0  0  0  0  0
   -1.5409   -4.2950    3.2966 C   0  0  0  0  0  0  0  0  0  0  0  0
   -2.6639   -3.6060    3.8998 N   0  0  0  0  0  0  0  0  0  0  0  0
   -2.5742   -2.3556    4.3929 C   0  0  0  0  0  0  0  0  0  0  0  0
   -3.8560   -1.7163    4.7993 C   0  0  0  0  0  0  0  0  0  0  0  0
   -4.1895   -1.7256    6.3035 C   0  0  0  0  0  0  0  0  0  0  0  0
   -5.6227   -1.4736    6.5966 C   0  0  0  0  0  0  0  0  0  0  0  0
   -3.5608   -2.8059    7.0965 C   0  0  0  0  0  0  0  0  0  0  0  0
   -3.8252   -0.3643    4.2636 N   0  0  0  0  0  0  0  0  0  0  0  0
   -4.2147   -0.1854    2.9715 C   0  0  0  0  0  0  0  0  0  0  0  0
   -4.1440    1.1185    2.2332 C   0  0  0  0  0  0  0  0  0  0  0  0
   -5.1338    1.1913    1.0733 C   0  0  0  0  0  0  0  0  0  0  0  0
   -4.9190    2.4424    0.2800 C   0  0  0  0  0  0  0  0  0  0  0  0
   -3.4967    2.5679   -0.0845 N   0  0  0  0  0  0  0  0  0  0  0  0
   -3.0628    2.7332   -1.3559 C   0  0  0  0  0  0  0  0  0  0  0  0
   -3.7919    2.2701   -2.4364 C   0  0  0  0  0  0  0  0  0  0  0  0
   -4.3649    1.9353   -3.3855 C   0  0  0  0  0  0  0  0  0  0  0  0
   -5.2052    1.4121   -4.3893 C   0  0  0  0  0  0  0  0  0  0  0  0
   -6.5397    1.4137   -3.9043 N   0  0  0  0  0  0  0  0  0  0  0  0
   -7.3119    2.5889   -3.9767 C   0  0  0  0  0  0  0  0  0  0  0  0
   -7.0470    0.3273   -3.1753 C   0  0  0  0  0  0  0  0  0  0  0  0
   -5.1005    2.2505   -5.6460 C   0  0  0  0  0  0  0  0  0  0  0  0
   -4.7903    0.0031   -4.7608 C   0  0  0  0  0  0  0  0  0  0  0  0
   -1.9512    3.2563   -1.5465 O   0  0  0  0  0  0  0  0  0  0  0  0
   -2.5353    2.4774    0.9711 C   0  0  0  0  0  0  0  0  0  0  0  0
   -2.7215    1.2097    1.7122 C   0  0  0  0  0  0  0  0  0  0  0  0
   -4.6146   -1.1884    2.3414 O   0  0  0  0  0  0  0  0  0  0  0  0
   -3.2482    0.7181    5.0898 C   0  0  0  0  0  0  0  0  0  0  0  0
   -1.5134   -1.7563    4.3654 O   0  0  0  0  0  0  0  0  0  0  0  0
   -2.0145   -5.0250    1.9780 C   0  0  0  0  0  0  0  0  0  0  0  0
   -2.5900   -4.0831    0.8900 C   0  0  0  0  0  0  0  0  0  0  0  0
   -1.4471   -3.3991    0.2395 C   0  0  0  0  0  0  0  0  0  0  0  0
   -1.8699   -2.5603   -0.8518 N   0  0  0  0  0  0  0  0  0  0  0  0
   -2.7118   -3.2345   -1.8505 C   0  0  0  0  0  0  0  0  0  0  0  0
   -3.8227   -4.0451   -1.1628 C   0  0  0  0  0  0  0  0  0  0  0  0
   -3.2890   -4.8955   -0.0898 O   0  0  0  0  0  0  0  0  0  0  0  0
   -1.6616   -6.0238    4.9028 O   0  0  0  0  0  0  0  0  0  0  0  0
    1.1418   -6.3199    5.1456 C   0  0  0  0  0  0  0  0  0  0  0  0
    2.1756   -7.1350    4.3444 C   0  0  0  0  0  0  0  0  0  0  0  0
    3.0505   -6.2551    3.4454 C   0  0  0  0  0  0  0  0  0  0  0  0
    4.1171   -4.6842    1.3434 O   0  0  0  0  0  0  0  0  0  0  0  0
    0.7093    0.0501   -0.6542 C   0  0  0  0  0  0  0  0  0  0  0  0
    0.5861    0.7019   -1.8778 C   0  0  0  0  0  0  0  0  0  0  0  0
   -0.4161    0.2673   -2.8051 C   0  0  0  0  0  0  0  0  0  0  0  0
   -1.2252   -0.8134   -2.4239 C   0  0  0  0  0  0  0  0  0  0  0  0
   -1.0663   -1.4633   -1.1980 C   0  0  0  0  0  0  0  0  0  0  0  0
   -0.0895   -1.0254   -0.2928 C   0  0  0  0  0  0  0  0  0  0  0  0
   -4.4373    2.1912    3.0518 F   0  0  0  0  0  0  0  0  0  0  0  0
  1  2  1  0  0  0  0
  2  3  1  0  0  0  0
  2  5  1  0  0  0  0
  3  4  1  0  0  0  0
  5  6  4  0  0  0  0
  5 10  4  0  0  0  0
  6  7  4  0  0  0  0
  7  8  4  0  0  0  0
  8  9  4  0  0  0  0
  9 10  4  0  0  0  0
 10 11  1  0  0  0  0
 11 12  4  0  0  0  0
 11 15  4  0  0  0  0
 12 13  1  0  0  0  0
 12 68  4  0  0  0  0
 13 14  1  0  0  0  0
 15 16  1  0  0  0  0
 15 67  4  0  0  0  0
 16 17  1  0  0  0  0
 17 18  1  0  0  0  0
 17 19  1  0  0  0  0
 17 20  1  0  0  0  0
 20 21  1  0  0  0  0
 21 22  1  0  0  0  0
 22 23  1  0  0  0  0
 22 66  2  0  0  0  0
 23 24  1  0  0  0  0
 23 65  1  0  0  0  0
 24 25  1  0  0  0  0
 25 26  1  0  0  0  0
 25 63  1  0  0  0  0
 26 27  1  0  0  0  0
 26 62  2  0  0  0  0
 27 28  1  0  0  0  0
 27 55  1  0  0  0  0
 28 29  1  0  0  0  0
 29 30  1  0  0  0  0
 29 54  2  0  0  0  0
 30 31  1  0  0  0  0
 30 34  1  0  0  0  0
 31 32  1  0  0  0  0
 31 33  1  0  0  0  0
 34 35  1  0  0  0  0
 34 53  1  0  0  0  0
 35 36  1  0  0  0  0
 35 52  2  0  0  0  0
 36 37  1  0  0  0  0
 36 51  1  0  0  0  0
 36 73  1  0  0  0  0
 37 38  1  0  0  0  0
 38 39  1  0  0  0  0
 39 40  1  0  0  0  0
 39 50  1  0  0  0  0
 40 41  1  0  0  0  0
 40 49  2  0  0  0  0
 41 42  1  0  0  0  0
 42 43  1  0  0  0  0
 43 44  1  0  0  0  0
 43 47  1  0  0  0  0
 43 48  1  0  0  0  0
 44 45  1  0  0  0  0
 44 46  1  0  0  0  0
 50 51  1  0  0  0  0
 55 56  1  0  0  0  0
 56 57  1  0  0  0  0
 56 61  1  0  0  0  0
 57 58  1  0  0  0  0
 58 59  1  0  0  0  0
 58 71  1  0  0  0  0
 59 60  1  0  0  0  0
 60 61  1  0  0  0  0
 63 64  1  0  0  0  0
 64 65  1  0  0  0  0
 67 68  4  0  0  0  0
 67 72  4  0  0  0  0
 68 69  4  0  0  0  0
 69 70  4  0  0  0  0
 70 71  4  0  0  0  0
 71 72  4  0  0  0  0
M  END
$$$$
