mol_bioactive_30
  PyMOL3.1          3D                             0

 73 79  0  0  0  0  0  0  0  0999 V2000
    1.4193    6.8246    0.4270 C   0  0  0  0  0  0  0  0  0  0  0  0
    1.1335    6.1068    1.6872 C   0  0  0  0  0  0  0  0  0  0  0  0
   -0.0962    6.4408    2.3042 O   0  0  0  0  0  0  0  0  0  0  0  0
   -1.2681    5.9134    1.7087 C   0  0  0  0  0  0  0  0  0  0  0  0
    2.1841    6.2945    2.7095 C   0  0  0  0  0  0  0  0  0  0  0  0
    2.2993    7.4759    3.3040 N   0  0  0  0  0  0  0  0  0  0  0  0
    3.2687    7.7111    4.2196 C   0  0  0  0  0  0  0  0  0  0  0  0
    4.1995    6.7243    4.5670 C   0  0  0  0  0  0  0  0  0  0  0  0
    4.0957    5.4788    3.9391 C   0  0  0  0  0  0  0  0  0  0  0  0
    3.0602    5.2702    3.0138 C   0  0  0  0  0  0  0  0  0  0  0  0
    2.9494    3.9697    2.4014 C   0  0  0  0  0  0  0  0  0  0  0  0
    3.6597    3.5920    1.3159 N   0  0  0  0  0  0  0  0  0  0  0  0
    4.6204    4.4306    0.5147 C   0  0  0  0  0  0  0  0  0  0  0  0
    6.0225    4.0654    0.6912 C   0  0  0  0  0  0  0  0  0  0  0  0
    2.0482    2.9409    2.7837 C   0  0  0  0  0  0  0  0  0  0  0  0
    0.9303    2.9338    3.7714 C   0  0  0  0  0  0  0  0  0  0  0  0
    1.1610    2.5714    5.2725 C   0  0  0  0  0  0  0  0  0  0  0  0
    1.8999    3.6466    6.0451 C   0  0  0  0  0  0  0  0  0  0  0  0
   -0.1967    2.5282    5.8934 C   0  0  0  0  0  0  0  0  0  0  0  0
    1.8692    1.2039    5.4977 C   0  0  0  0  0  0  0  0  0  0  0  0
    0.9476    0.0945    5.6537 O   0  0  0  0  0  0  0  0  0  0  0  0
    1.1340   -1.0850    6.3721 C   0  0  0  0  0  0  0  0  0  0  0  0
   -0.2188   -1.7151    6.7249 C   0  0  0  0  0  0  0  0  0  0  0  0
   -0.7923   -2.2684    5.5429 N   0  0  0  0  0  0  0  0  0  0  0  0
   -1.9693   -2.9865    5.5203 N   0  0  0  0  0  0  0  0  0  0  0  0
   -2.6075   -3.1969    4.3315 C   0  0  0  0  0  0  0  0  0  0  0  0
   -2.2841   -3.3049    2.8828 C   0  0  0  0  0  0  0  0  0  0  0  0
   -2.9373   -2.2136    2.1337 N   0  0  0  0  0  0  0  0  0  0  0  0
   -3.4773   -1.1543    1.8827 C   0  0  0  0  0  0  0  0  0  0  0  0
   -4.5519   -0.3932    1.2595 C   0  0  0  0  0  0  0  0  0  0  0  0
   -5.8984   -1.0462    1.0995 C   0  0  0  0  0  0  0  0  0  0  0  0
   -6.6523   -1.1405   -0.1348 C   0  0  0  0  0  0  0  0  0  0  0  0
   -6.3550   -1.8474    2.2410 C   0  0  0  0  0  0  0  0  0  0  0  0
   -4.0056    0.1509   -0.0362 N   0  0  0  0  0  0  0  0  0  0  0  0
   -2.9332    0.0617   -0.8213 C   0  0  0  0  0  0  0  0  0  0  0  0
   -2.2786    1.1744   -1.6352 C   0  0  0  0  0  0  0  0  0  0  0  0
   -1.4267    0.6515   -2.7902 C   0  0  0  0  0  0  0  0  0  0  0  0
   -0.7084    1.7656   -3.4912 C   0  0  0  0  0  0  0  0  0  0  0  0
    0.0453    2.5872   -2.5210 N   0  0  0  0  0  0  0  0  0  0  0  0
    1.3893    2.8607   -2.6401 C   0  0  0  0  0  0  0  0  0  0  0  0
    2.2020    2.1170   -3.4710 C   0  0  0  0  0  0  0  0  0  0  0  0
    2.9664    1.5848   -4.1547 C   0  0  0  0  0  0  0  0  0  0  0  0
    3.7587    0.7792   -5.0169 C   0  0  0  0  0  0  0  0  0  0  0  0
    4.8505    1.5216   -5.5444 N   0  0  0  0  0  0  0  0  0  0  0  0
    5.8666    1.9822   -4.6872 C   0  0  0  0  0  0  0  0  0  0  0  0
    4.8948    1.9791   -6.8791 C   0  0  0  0  0  0  0  0  0  0  0  0
    4.2694   -0.4391   -4.2530 C   0  0  0  0  0  0  0  0  0  0  0  0
    2.8890    0.2532   -6.1310 C   0  0  0  0  0  0  0  0  0  0  0  0
    1.9114    3.7505   -1.9537 O   0  0  0  0  0  0  0  0  0  0  0  0
   -0.6936    3.0864   -1.4025 C   0  0  0  0  0  0  0  0  0  0  0  0
   -1.3881    1.9705   -0.6900 C   0  0  0  0  0  0  0  0  0  0  0  0
   -2.4824   -1.0952   -0.9294 O   0  0  0  0  0  0  0  0  0  0  0  0
   -4.5535    1.6140    0.2533 C   0  0  0  0  0  0  0  0  0  0  0  0
   -3.0037   -0.2427    2.7094 O   0  0  0  0  0  0  0  0  0  0  0  0
   -0.8184   -3.4276    2.5663 C   0  0  0  0  0  0  0  0  0  0  0  0
   -0.1713   -2.9641    1.2680 C   0  0  0  0  0  0  0  0  0  0  0  0
    0.8054   -1.9663    1.6901 C   0  0  0  0  0  0  0  0  0  0  0  0
    1.6242   -1.4977    0.6335 N   0  0  0  0  0  0  0  0  0  0  0  0
    2.2606   -2.5478   -0.1998 C   0  0  0  0  0  0  0  0  0  0  0  0
    1.2470   -3.6358   -0.5720 C   0  0  0  0  0  0  0  0  0  0  0  0
    0.4774   -4.0825    0.6052 O   0  0  0  0  0  0  0  0  0  0  0  0
   -3.6493   -3.9590    4.4138 O   0  0  0  0  0  0  0  0  0  0  0  0
   -2.5123   -3.3730    6.8166 C   0  0  0  0  0  0  0  0  0  0  0  0
   -1.4461   -3.6460    7.8633 C   0  0  0  0  0  0  0  0  0  0  0  0
   -0.2349   -2.7322    7.8686 C   0  0  0  0  0  0  0  0  0  0  0  0
    2.2086   -1.4297    6.8668 O   0  0  0  0  0  0  0  0  0  0  0  0
    2.3255    1.8972    1.8809 C   0  0  0  0  0  0  0  0  0  0  0  0
    3.3089    2.3365    1.0026 C   0  0  0  0  0  0  0  0  0  0  0  0
    3.7492    1.4669   -0.0529 C   0  0  0  0  0  0  0  0  0  0  0  0
    3.1509    0.2118   -0.1456 C   0  0  0  0  0  0  0  0  0  0  0  0
    2.1783   -0.2168    0.7511 C   0  0  0  0  0  0  0  0  0  0  0  0
    1.7356    0.6450    1.7788 C   0  0  0  0  0  0  0  0  0  0  0  0
   -3.2260    2.0211   -2.2001 F   0  0  0  0  0  0  0  0  0  0  0  0
  1  2  1  0  0  0  0
  2  3  1  0  0  0  0
  2  5  1  0  0  0  0
  3  4  1  0  0  0  0
  5  6  4  0  0  0  0
  5 10  4  0  0  0  0
  6  7  4  0  0  0  0
  7  8  4  0  0  0  0
  8  9  4  0  0  0  0
  9 10  4  0  0  0  0
 10 11  1  0  0  0  0
 11 12  4  0  0  0  0
 11 15  4  0  0  0  0
 12 13  1  0  0  0  0
 12 68  4  0  0  0  0
 13 14  1  0  0  0  0
 15 16  1  0  0  0  0
 15 67  4  0  0  0  0
 16 17  1  0  0  0  0
 17 18  1  0  0  0  0
 17 19  1  0  0  0  0
 17 20  1  0  0  0  0
 20 21  1  0  0  0  0
 21 22  1  0  0  0  0
 22 23  1  0  0  0  0
 22 66  2  0  0  0  0
 23 24  1  0  0  0  0
 23 65  1  0  0  0  0
 24 25  1  0  0  0  0
 25 26  1  0  0  0  0
 25 63  1  0  0  0  0
 26 27  1  0  0  0  0
 26 62  1  0  0  0  0
 27 28  1  0  0  0  0
 27 55  1  0  0  0  0
 28 29  1  0  0  0  0
 29 30  1  0  0  0  0
 29 54  2  0  0  0  0
 30 31  1  0  0  0  0
 30 34  1  0  0  0  0
 31 32  1  0  0  0  0
 31 33  1  0  0  0  0
 34 35  1  0  0  0  0
 34 53  1  0  0  0  0
 35 36  1  0  0  0  0
 35 52  2  0  0  0  0
 36 37  1  0  0  0  0
 36 51  1  0  0  0  0
 36 73  1  0  0  0  0
 37 38  1  0  0  0  0
 38 39  1  0  0  0  0
 39 40  1  0  0  0  0
 39 50  1  0  0  0  0
 40 41  1  0  0  0  0
 40 49  2  0  0  0  0
 41 42  1  0  0  0  0
 42 43  1  0  0  0  0
 43 44  1  0  0  0  0
 43 47  1  0  0  0  0
 43 48  1  0  0  0  0
 44 45  1  0  0  0  0
 44 46  1  0  0  0  0
 50 51  1  0  0  0  0
 55 56  1  0  0  0  0
 56 57  1  0  0  0  0
 56 61  1  0  0  0  0
 57 58  1  0  0  0  0
 58 59  1  0  0  0  0
 58 71  1  0  0  0  0
 59 60  1  0  0  0  0
 60 61  1  0  0  0  0
 63 64  1  0  0  0  0
 64 65  1  0  0  0  0
 67 68  4  0  0  0  0
 67 72  4  0  0  0  0
 68 69  4  0  0  0  0
 69 70  4  0  0  0  0
 70 71  4  0  0  0  0
 71 72  4  0  0  0  0
M  END
$$$$
