mol_ETKDG4_214
  PyMOL3.1          3D                             0

 73 79  0  0  0  0  0  0  0  0999 V2000
   -3.8492   -3.9122   -2.3577 C   0  0  0  0  0  0  0  0  0  0  0  0
   -3.6781   -2.4462   -2.2384 C   0  0  0  0  0  0  0  0  0  0  0  0
   -4.3129   -1.6894   -3.2428 O   0  0  0  0  0  0  0  0  0  0  0  0
   -3.7258   -1.7168   -4.5223 C   0  0  0  0  0  0  0  0  0  0  0  0
   -4.1498   -1.9319   -0.9420 C   0  0  0  0  0  0  0  0  0  0  0  0
   -5.4532   -1.9565   -0.7077 N   0  0  0  0  0  0  0  0  0  0  0  0
   -5.9588   -1.5705    0.4803 C   0  0  0  0  0  0  0  0  0  0  0  0
   -5.1339   -1.1361    1.5195 C   0  0  0  0  0  0  0  0  0  0  0  0
   -3.7547   -1.1029    1.2947 C   0  0  0  0  0  0  0  0  0  0  0  0
   -3.2683   -1.4833    0.0343 C   0  0  0  0  0  0  0  0  0  0  0  0
   -1.8486   -1.3907   -0.1972 C   0  0  0  0  0  0  0  0  0  0  0  0
   -0.9737   -2.3403    0.1919 N   0  0  0  0  0  0  0  0  0  0  0  0
   -1.2884   -3.6492    0.8606 C   0  0  0  0  0  0  0  0  0  0  0  0
   -0.9423   -3.6699    2.2839 C   0  0  0  0  0  0  0  0  0  0  0  0
   -1.1744   -0.3434   -0.8896 C   0  0  0  0  0  0  0  0  0  0  0  0
   -1.6977    0.8587   -1.6280 C   0  0  0  0  0  0  0  0  0  0  0  0
   -1.8671    2.1979   -0.7893 C   0  0  0  0  0  0  0  0  0  0  0  0
   -2.7969    2.0408    0.3954 C   0  0  0  0  0  0  0  0  0  0  0  0
   -2.5431    3.2007   -1.6924 C   0  0  0  0  0  0  0  0  0  0  0  0
   -0.5345    2.7391   -0.2773 C   0  0  0  0  0  0  0  0  0  0  0  0
    0.2462    3.5585   -1.2769 O   0  0  0  0  0  0  0  0  0  0  0  0
    0.6955    4.8948   -1.0547 C   0  0  0  0  0  0  0  0  0  0  0  0
    1.5213    5.5780   -2.1286 C   0  0  0  0  0  0  0  0  0  0  0  0
    1.4024    4.8791   -3.3721 N   0  0  0  0  0  0  0  0  0  0  0  0
    2.0905    5.3980   -4.4656 N   0  0  0  0  0  0  0  0  0  0  0  0
    2.9416    4.6260   -5.1915 C   0  0  0  0  0  0  0  0  0  0  0  0
    3.0974    3.1868   -4.8141 C   0  0  0  0  0  0  0  0  0  0  0  0
    3.1717    2.3487   -5.9812 N   0  0  0  0  0  0  0  0  0  0  0  0
    2.1450    1.6012   -6.3953 C   0  0  0  0  0  0  0  0  0  0  0  0
    2.4297    0.6558   -7.5094 C   0  0  0  0  0  0  0  0  0  0  0  0
    2.0625    1.1572   -8.9197 C   0  0  0  0  0  0  0  0  0  0  0  0
    1.2507    2.3719   -9.0213 C   0  0  0  0  0  0  0  0  0  0  0  0
    3.1931    1.0387   -9.8967 C   0  0  0  0  0  0  0  0  0  0  0  0
    1.7786   -0.6083   -7.1760 N   0  0  0  0  0  0  0  0  0  0  0  0
    2.4012   -1.4550   -6.2860 C   0  0  0  0  0  0  0  0  0  0  0  0
    1.8232   -2.7552   -5.8043 C   0  0  0  0  0  0  0  0  0  0  0  0
    2.8168   -3.6444   -5.0531 C   0  0  0  0  0  0  0  0  0  0  0  0
    2.1517   -4.8683   -4.5325 C   0  0  0  0  0  0  0  0  0  0  0  0
    0.9114   -4.5430   -3.8048 N   0  0  0  0  0  0  0  0  0  0  0  0
    0.5684   -5.0777   -2.6067 C   0  0  0  0  0  0  0  0  0  0  0  0
    1.4365   -5.8447   -1.8612 C   0  0  0  0  0  0  0  0  0  0  0  0
    2.0218   -6.5588   -1.1647 C   0  0  0  0  0  0  0  0  0  0  0  0
    2.8562   -7.4136   -0.4142 C   0  0  0  0  0  0  0  0  0  0  0  0
    2.2321   -8.7061   -0.3210 N   0  0  0  0  0  0  0  0  0  0  0  0
    1.1089   -8.8545    0.5284 C   0  0  0  0  0  0  0  0  0  0  0  0
    2.4152   -9.6618   -1.3348 C   0  0  0  0  0  0  0  0  0  0  0  0
    4.2112   -7.4948   -1.0735 C   0  0  0  0  0  0  0  0  0  0  0  0
    3.0854   -6.8509    0.9779 C   0  0  0  0  0  0  0  0  0  0  0  0
   -0.5619   -4.8484   -2.1395 O   0  0  0  0  0  0  0  0  0  0  0  0
    0.0106   -3.6231   -4.4096 C   0  0  0  0  0  0  0  0  0  0  0  0
    0.6946   -2.4061   -4.8542 C   0  0  0  0  0  0  0  0  0  0  0  0
    3.5086   -1.0994   -5.8381 O   0  0  0  0  0  0  0  0  0  0  0  0
    0.4313   -0.8685   -7.7122 C   0  0  0  0  0  0  0  0  0  0  0  0
    1.0843    1.6162   -5.7924 O   0  0  0  0  0  0  0  0  0  0  0  0
    4.3742    2.9700   -3.9118 C   0  0  0  0  0  0  0  0  0  0  0  0
    4.5494    1.5122   -3.3953 C   0  0  0  0  0  0  0  0  0  0  0  0
    3.5188    1.2663   -2.3535 C   0  0  0  0  0  0  0  0  0  0  0  0
    3.6663   -0.0297   -1.7219 N   0  0  0  0  0  0  0  0  0  0  0  0
    5.0110   -0.3153   -1.2158 C   0  0  0  0  0  0  0  0  0  0  0  0
    6.0768    0.0541   -2.2574 C   0  0  0  0  0  0  0  0  0  0  0  0
    5.8671    1.3993   -2.8048 O   0  0  0  0  0  0  0  0  0  0  0  0
    3.5983    5.0847   -6.1375 O   0  0  0  0  0  0  0  0  0  0  0  0
    1.7844    6.7870   -4.8126 C   0  0  0  0  0  0  0  0  0  0  0  0
    1.8655    7.6616   -3.5505 C   0  0  0  0  0  0  0  0  0  0  0  0
    1.1005    7.0607   -2.3667 C   0  0  0  0  0  0  0  0  0  0  0  0
    0.4513    5.5510   -0.0198 O   0  0  0  0  0  0  0  0  0  0  0  0
    0.1731   -0.7201   -0.8284 C   0  0  0  0  0  0  0  0  0  0  0  0
    0.2546   -1.9422   -0.1708 C   0  0  0  0  0  0  0  0  0  0  0  0
    1.5298   -2.5646   -0.0186 C   0  0  0  0  0  0  0  0  0  0  0  0
    2.6383   -1.9083   -0.5519 C   0  0  0  0  0  0  0  0  0  0  0  0
    2.5355   -0.6737   -1.2012 C   0  0  0  0  0  0  0  0  0  0  0  0
    1.2791   -0.0698   -1.3529 C   0  0  0  0  0  0  0  0  0  0  0  0
    1.3600   -3.4936   -6.8759 F   0  0  0  0  0  0  0  0  0  0  0  0
  1  2  1  0  0  0  0
  2  3  1  0  0  0  0
  2  5  1  0  0  0  0
  3  4  1  0  0  0  0
  5  6  4  0  0  0  0
  5 10  4  0  0  0  0
  6  7  4  0  0  0  0
  7  8  4  0  0  0  0
  8  9  4  0  0  0  0
  9 10  4  0  0  0  0
 10 11  1  0  0  0  0
 11 12  4  0  0  0  0
 11 15  4  0  0  0  0
 12 13  1  0  0  0  0
 12 68  4  0  0  0  0
 13 14  1  0  0  0  0
 15 16  1  0  0  0  0
 15 67  4  0  0  0  0
 16 17  1  0  0  0  0
 17 18  1  0  0  0  0
 17 19  1  0  0  0  0
 17 20  1  0  0  0  0
 20 21  1  0  0  0  0
 21 22  1  0  0  0  0
 22 23  1  0  0  0  0
 22 66  2  0  0  0  0
 23 24  1  0  0  0  0
 23 65  1  0  0  0  0
 24 25  1  0  0  0  0
 25 26  1  0  0  0  0
 25 63  1  0  0  0  0
 26 27  1  0  0  0  0
 26 62  2  0  0  0  0
 27 28  1  0  0  0  0
 27 55  1  0  0  0  0
 28 29  1  0  0  0  0
 29 30  1  0  0  0  0
 29 54  2  0  0  0  0
 30 31  1  0  0  0  0
 30 34  1  0  0  0  0
 31 32  1  0  0  0  0
 31 33  1  0  0  0  0
 34 35  1  0  0  0  0
 34 53  1  0  0  0  0
 35 36  1  0  0  0  0
 35 52  2  0  0  0  0
 36 37  1  0  0  0  0
 36 51  1  0  0  0  0
 36 73  1  0  0  0  0
 37 38  1  0  0  0  0
 38 39  1  0  0  0  0
 39 40  1  0  0  0  0
 39 50  1  0  0  0  0
 40 41  1  0  0  0  0
 40 49  2  0  0  0  0
 41 42  1  0  0  0  0
 42 43  1  0  0  0  0
 43 44  1  0  0  0  0
 43 47  1  0  0  0  0
 43 48  1  0  0  0  0
 44 45  1  0  0  0  0
 44 46  1  0  0  0  0
 50 51  1  0  0  0  0
 55 56  1  0  0  0  0
 56 57  1  0  0  0  0
 56 61  1  0  0  0  0
 57 58  1  0  0  0  0
 58 59  1  0  0  0  0
 58 71  1  0  0  0  0
 59 60  1  0  0  0  0
 60 61  1  0  0  0  0
 63 64  1  0  0  0  0
 64 65  1  0  0  0  0
 67 68  4  0  0  0  0
 67 72  4  0  0  0  0
 68 69  4  0  0  0  0
 69 70  4  0  0  0  0
 70 71  4  0  0  0  0
 71 72  4  0  0  0  0
M  END
$$$$
