mol_bioactive_13
  PyMOL3.1          3D                             0

 73 79  0  0  0  0  0  0  0  0999 V2000
   -6.1035    1.9386   -0.5208 C   0  0  0  0  0  0  0  0  0  0  0  0
   -6.8597    2.9049   -1.2335 C   0  0  0  0  0  0  0  0  0  0  0  0
   -7.2088    2.5236   -2.5721 O   0  0  0  0  0  0  0  0  0  0  0  0
   -7.5507    1.2549   -2.9361 C   0  0  0  0  0  0  0  0  0  0  0  0
   -6.3773    4.2831   -1.3625 C   0  0  0  0  0  0  0  0  0  0  0  0
   -7.3308    5.0611   -1.8092 N   0  0  0  0  0  0  0  0  0  0  0  0
   -7.2067    6.3841   -1.8460 C   0  0  0  0  0  0  0  0  0  0  0  0
   -6.0621    7.0189   -1.3994 C   0  0  0  0  0  0  0  0  0  0  0  0
   -5.0115    6.2338   -0.9389 C   0  0  0  0  0  0  0  0  0  0  0  0
   -5.1558    4.8418   -0.9360 C   0  0  0  0  0  0  0  0  0  0  0  0
   -4.0160    4.0736   -0.4839 C   0  0  0  0  0  0  0  0  0  0  0  0
   -3.7276    3.8892    0.8308 N   0  0  0  0  0  0  0  0  0  0  0  0
   -4.5351    4.3319    2.0155 C   0  0  0  0  0  0  0  0  0  0  0  0
   -4.0065    5.5481    2.6522 C   0  0  0  0  0  0  0  0  0  0  0  0
   -3.0478    3.4140   -1.2902 C   0  0  0  0  0  0  0  0  0  0  0  0
   -3.0317    3.1655   -2.7661 C   0  0  0  0  0  0  0  0  0  0  0  0
   -2.3205    4.2267   -3.6754 C   0  0  0  0  0  0  0  0  0  0  0  0
   -2.8132    5.6359   -3.4773 C   0  0  0  0  0  0  0  0  0  0  0  0
   -2.6371    3.8969   -5.1174 C   0  0  0  0  0  0  0  0  0  0  0  0
   -0.8388    4.1755   -3.3877 C   0  0  0  0  0  0  0  0  0  0  0  0
   -0.0992    3.0080   -4.0255 O   0  0  0  0  0  0  0  0  0  0  0  0
    1.0076    3.1635   -4.9228 C   0  0  0  0  0  0  0  0  0  0  0  0
    1.7945    1.9477   -5.3745 C   0  0  0  0  0  0  0  0  0  0  0  0
    1.0718    0.7289   -5.1561 N   0  0  0  0  0  0  0  0  0  0  0  0
    1.6807   -0.4599   -5.5791 N   0  0  0  0  0  0  0  0  0  0  0  0
    1.8802   -1.5187   -4.7215 C   0  0  0  0  0  0  0  0  0  0  0  0
    1.4420   -1.3875   -3.2876 C   0  0  0  0  0  0  0  0  0  0  0  0
    0.8526   -2.6172   -2.7660 N   0  0  0  0  0  0  0  0  0  0  0  0
   -0.4622   -2.8566   -2.6690 C   0  0  0  0  0  0  0  0  0  0  0  0
   -0.8730   -4.1191   -1.9755 C   0  0  0  0  0  0  0  0  0  0  0  0
   -1.1581   -5.3082   -2.9632 C   0  0  0  0  0  0  0  0  0  0  0  0
   -1.6971   -6.5316   -2.2938 C   0  0  0  0  0  0  0  0  0  0  0  0
    0.0673   -5.6429   -3.7833 C   0  0  0  0  0  0  0  0  0  0  0  0
   -2.0073   -3.7785   -1.1071 N   0  0  0  0  0  0  0  0  0  0  0  0
   -1.7557   -3.2602    0.1509 C   0  0  0  0  0  0  0  0  0  0  0  0
   -2.8200   -2.8545    1.1421 C   0  0  0  0  0  0  0  0  0  0  0  0
   -2.3530   -2.8710    2.5962 C   0  0  0  0  0  0  0  0  0  0  0  0
   -3.4356   -2.4186    3.5010 C   0  0  0  0  0  0  0  0  0  0  0  0
   -4.0270   -1.1481    3.0551 N   0  0  0  0  0  0  0  0  0  0  0  0
   -4.2984   -0.1189    3.8960 C   0  0  0  0  0  0  0  0  0  0  0  0
   -4.0817   -0.1991    5.2579 C   0  0  0  0  0  0  0  0  0  0  0  0
   -3.9714   -0.1780    6.4300 C   0  0  0  0  0  0  0  0  0  0  0  0
   -3.7277   -0.2646    7.8102 C   0  0  0  0  0  0  0  0  0  0  0  0
   -2.8168   -1.2845    8.1830 N   0  0  0  0  0  0  0  0  0  0  0  0
   -2.2733   -2.1285    7.2579 C   0  0  0  0  0  0  0  0  0  0  0  0
   -2.3833   -1.4262    9.5062 C   0  0  0  0  0  0  0  0  0  0  0  0
   -3.1684    1.0653    8.2788 C   0  0  0  0  0  0  0  0  0  0  0  0
   -5.0258   -0.5340    8.5490 C   0  0  0  0  0  0  0  0  0  0  0  0
   -4.7589    0.9405    3.4219 O   0  0  0  0  0  0  0  0  0  0  0  0
   -4.3385   -1.0123    1.6711 C   0  0  0  0  0  0  0  0  0  0  0  0
   -3.2638   -1.4502    0.7855 C   0  0  0  0  0  0  0  0  0  0  0  0
   -0.5689   -3.1127    0.4767 O   0  0  0  0  0  0  0  0  0  0  0  0
   -3.3661   -3.8790   -1.6488 C   0  0  0  0  0  0  0  0  0  0  0  0
   -1.2553   -2.0110   -3.0341 O   0  0  0  0  0  0  0  0  0  0  0  0
    2.6767   -0.9918   -2.4005 C   0  0  0  0  0  0  0  0  0  0  0  0
    2.5591   -0.1219   -1.1227 C   0  0  0  0  0  0  0  0  0  0  0  0
    1.2006    0.3930   -0.9093 C   0  0  0  0  0  0  0  0  0  0  0  0
    0.9495    0.9998    0.3681 N   0  0  0  0  0  0  0  0  0  0  0  0
    1.8983    0.8471    1.4273 C   0  0  0  0  0  0  0  0  0  0  0  0
    2.9890   -0.1459    1.2358 C   0  0  0  0  0  0  0  0  0  0  0  0
    3.0027   -0.9144    0.0133 O   0  0  0  0  0  0  0  0  0  0  0  0
    2.4465   -2.5591   -5.0892 O   0  0  0  0  0  0  0  0  0  0  0  0
    2.0369   -0.5088   -6.9934 C   0  0  0  0  0  0  0  0  0  0  0  0
    2.8433    0.7510   -7.3662 C   0  0  0  0  0  0  0  0  0  0  0  0
    2.1827    2.0325   -6.8795 C   0  0  0  0  0  0  0  0  0  0  0  0
    1.3890    4.2652   -5.3784 O   0  0  0  0  0  0  0  0  0  0  0  0
   -2.1234    2.8978   -0.3580 C   0  0  0  0  0  0  0  0  0  0  0  0
   -2.5883    3.1948    0.9166 C   0  0  0  0  0  0  0  0  0  0  0  0
   -1.8643    2.7261    2.0605 C   0  0  0  0  0  0  0  0  0  0  0  0
   -0.6974    2.0099    1.8335 C   0  0  0  0  0  0  0  0  0  0  0  0
   -0.2291    1.7269    0.5514 C   0  0  0  0  0  0  0  0  0  0  0  0
   -0.9488    2.1723   -0.5746 C   0  0  0  0  0  0  0  0  0  0  0  0
   -3.8831   -3.7197    1.0907 F   0  0  0  0  0  0  0  0  0  0  0  0
  1  2  1  0  0  0  0
  2  3  1  0  0  0  0
  2  5  1  0  0  0  0
  3  4  1  0  0  0  0
  5  6  4  0  0  0  0
  5 10  4  0  0  0  0
  6  7  4  0  0  0  0
  7  8  4  0  0  0  0
  8  9  4  0  0  0  0
  9 10  4  0  0  0  0
 10 11  1  0  0  0  0
 11 12  4  0  0  0  0
 11 15  4  0  0  0  0
 12 13  1  0  0  0  0
 12 68  4  0  0  0  0
 13 14  1  0  0  0  0
 15 16  1  0  0  0  0
 15 67  4  0  0  0  0
 16 17  1  0  0  0  0
 17 18  1  0  0  0  0
 17 19  1  0  0  0  0
 17 20  1  0  0  0  0
 20 21  1  0  0  0  0
 21 22  1  0  0  0  0
 22 23  1  0  0  0  0
 22 66  2  0  0  0  0
 23 24  1  0  0  0  0
 23 65  1  0  0  0  0
 24 25  1  0  0  0  0
 25 26  1  0  0  0  0
 25 63  1  0  0  0  0
 26 27  1  0  0  0  0
 26 62  2  0  0  0  0
 27 28  1  0  0  0  0
 27 55  1  0  0  0  0
 28 29  1  0  0  0  0
 29 30  1  0  0  0  0
 29 54  2  0  0  0  0
 30 31  1  0  0  0  0
 30 34  1  0  0  0  0
 31 32  1  0  0  0  0
 31 33  1  0  0  0  0
 34 35  1  0  0  0  0
 34 53  1  0  0  0  0
 35 36  1  0  0  0  0
 35 52  2  0  0  0  0
 36 37  1  0  0  0  0
 36 51  1  0  0  0  0
 36 73  1  0  0  0  0
 37 38  1  0  0  0  0
 38 39  1  0  0  0  0
 39 40  1  0  0  0  0
 39 50  1  0  0  0  0
 40 41  1  0  0  0  0
 40 49  2  0  0  0  0
 41 42  1  0  0  0  0
 42 43  1  0  0  0  0
 43 44  1  0  0  0  0
 43 47  1  0  0  0  0
 43 48  1  0  0  0  0
 44 45  1  0  0  0  0
 44 46  1  0  0  0  0
 50 51  1  0  0  0  0
 55 56  1  0  0  0  0
 56 57  1  0  0  0  0
 56 61  1  0  0  0  0
 57 58  1  0  0  0  0
 58 59  1  0  0  0  0
 58 71  1  0  0  0  0
 59 60  1  0  0  0  0
 60 61  1  0  0  0  0
 63 64  1  0  0  0  0
 64 65  1  0  0  0  0
 67 68  4  0  0  0  0
 67 72  4  0  0  0  0
 68 69  4  0  0  0  0
 69 70  4  0  0  0  0
 70 71  4  0  0  0  0
 71 72  4  0  0  0  0
M  END
$$$$
