mol_ETKDG5_279
  PyMOL3.1          3D                             0

 73 79  0  0  0  0  0  0  0  0999 V2000
    6.0820    0.0998   -4.3720 C   0  0  0  0  0  0  0  0  0  0  0  0
    5.2301   -0.7913   -5.1807 C   0  0  0  0  0  0  0  0  0  0  0  0
    4.8088   -0.2598   -6.4253 O   0  0  0  0  0  0  0  0  0  0  0  0
    3.8043    0.7154   -6.4028 C   0  0  0  0  0  0  0  0  0  0  0  0
    5.8651   -2.0878   -5.4648 C   0  0  0  0  0  0  0  0  0  0  0  0
    6.6841   -2.1679   -6.4991 N   0  0  0  0  0  0  0  0  0  0  0  0
    7.3219   -3.3179   -6.8019 C   0  0  0  0  0  0  0  0  0  0  0  0
    7.1591   -4.4715   -6.0298 C   0  0  0  0  0  0  0  0  0  0  0  0
    6.3129   -4.4055   -4.9215 C   0  0  0  0  0  0  0  0  0  0  0  0
    5.6420   -3.1949   -4.6589 C   0  0  0  0  0  0  0  0  0  0  0  0
    4.7474   -3.1488   -3.5259 C   0  0  0  0  0  0  0  0  0  0  0  0
    5.1857   -3.0169   -2.2539 N   0  0  0  0  0  0  0  0  0  0  0  0
    6.6037   -2.8381   -1.7879 C   0  0  0  0  0  0  0  0  0  0  0  0
    7.1504   -4.0145   -1.1154 C   0  0  0  0  0  0  0  0  0  0  0  0
    3.3250   -3.1638   -3.5618 C   0  0  0  0  0  0  0  0  0  0  0  0
    2.3636   -3.1315   -4.7235 C   0  0  0  0  0  0  0  0  0  0  0  0
    1.9719   -4.5220   -5.3530 C   0  0  0  0  0  0  0  0  0  0  0  0
    1.4619   -4.2714   -6.7692 C   0  0  0  0  0  0  0  0  0  0  0  0
    3.1180   -5.4337   -5.4950 C   0  0  0  0  0  0  0  0  0  0  0  0
    0.9572   -5.2112   -4.4986 C   0  0  0  0  0  0  0  0  0  0  0  0
   -0.4525   -4.7304   -4.4130 O   0  0  0  0  0  0  0  0  0  0  0  0
   -1.5833   -5.6206   -4.4752 C   0  0  0  0  0  0  0  0  0  0  0  0
   -2.9442   -5.1178   -4.0676 C   0  0  0  0  0  0  0  0  0  0  0  0
   -3.0339   -3.6821   -4.1090 N   0  0  0  0  0  0  0  0  0  0  0  0
   -4.2840   -3.1167   -3.8145 N   0  0  0  0  0  0  0  0  0  0  0  0
   -4.4447   -2.1597   -2.8505 C   0  0  0  0  0  0  0  0  0  0  0  0
   -3.2446   -1.7144   -2.0717 C   0  0  0  0  0  0  0  0  0  0  0  0
   -3.3108   -0.3118   -1.7086 N   0  0  0  0  0  0  0  0  0  0  0  0
   -2.5871    0.6473   -2.2994 C   0  0  0  0  0  0  0  0  0  0  0  0
   -2.6624    2.0039   -1.6701 C   0  0  0  0  0  0  0  0  0  0  0  0
   -3.5514    3.0156   -2.4641 C   0  0  0  0  0  0  0  0  0  0  0  0
   -3.8582    4.2562   -1.6907 C   0  0  0  0  0  0  0  0  0  0  0  0
   -4.7628    2.3881   -3.0649 C   0  0  0  0  0  0  0  0  0  0  0  0
   -1.2743    2.4657   -1.5388 N   0  0  0  0  0  0  0  0  0  0  0  0
   -0.5118    1.9832   -0.4999 C   0  0  0  0  0  0  0  0  0  0  0  0
    0.9487    2.3021   -0.3116 C   0  0  0  0  0  0  0  0  0  0  0  0
    1.7055    1.4853   -1.3328 C   0  0  0  0  0  0  0  0  0  0  0  0
    3.1630    1.7602   -1.2687 C   0  0  0  0  0  0  0  0  0  0  0  0
    3.6424    1.5277    0.0952 N   0  0  0  0  0  0  0  0  0  0  0  0
    4.7134    0.7156    0.3280 C   0  0  0  0  0  0  0  0  0  0  0  0
    5.0595    0.3776    1.6188 C   0  0  0  0  0  0  0  0  0  0  0  0
    5.4819    0.1087    2.6468 C   0  0  0  0  0  0  0  0  0  0  0  0
    5.8073   -0.0626    3.9974 C   0  0  0  0  0  0  0  0  0  0  0  0
    6.7163    0.9655    4.4177 N   0  0  0  0  0  0  0  0  0  0  0  0
    6.7097    1.4431    5.7367 C   0  0  0  0  0  0  0  0  0  0  0  0
    7.8684    1.2379    3.6464 C   0  0  0  0  0  0  0  0  0  0  0  0
    6.4234   -1.4357    4.2414 C   0  0  0  0  0  0  0  0  0  0  0  0
    4.5237    0.0013    4.8081 C   0  0  0  0  0  0  0  0  0  0  0  0
    5.3772    0.2524   -0.5998 O   0  0  0  0  0  0  0  0  0  0  0  0
    2.9296    2.1833    1.1549 C   0  0  0  0  0  0  0  0  0  0  0  0
    1.4730    1.9451    1.0858 C   0  0  0  0  0  0  0  0  0  0  0  0
   -1.0611    1.2145    0.3150 O   0  0  0  0  0  0  0  0  0  0  0  0
   -0.7052    3.3177   -2.5939 C   0  0  0  0  0  0  0  0  0  0  0  0
   -1.8220    0.3728   -3.2073 O   0  0  0  0  0  0  0  0  0  0  0  0
   -3.1734   -2.5660   -0.7463 C   0  0  0  0  0  0  0  0  0  0  0  0
   -1.9598   -2.2638    0.1501 C   0  0  0  0  0  0  0  0  0  0  0  0
   -0.8173   -3.0027   -0.4337 C   0  0  0  0  0  0  0  0  0  0  0  0
    0.3557   -2.8815    0.3738 N   0  0  0  0  0  0  0  0  0  0  0  0
    0.1787   -3.1934    1.7982 C   0  0  0  0  0  0  0  0  0  0  0  0
   -1.0912   -2.5418    2.3577 C   0  0  0  0  0  0  0  0  0  0  0  0
   -2.2422   -2.7775    1.4771 O   0  0  0  0  0  0  0  0  0  0  0  0
   -5.5588   -1.6860   -2.5658 O   0  0  0  0  0  0  0  0  0  0  0  0
   -5.3878   -3.5642   -4.6509 C   0  0  0  0  0  0  0  0  0  0  0  0
   -5.4283   -5.1040   -4.6323 C   0  0  0  0  0  0  0  0  0  0  0  0
   -4.0699   -5.7057   -4.9663 C   0  0  0  0  0  0  0  0  0  0  0  0
   -1.5328   -6.8138   -4.8941 O   0  0  0  0  0  0  0  0  0  0  0  0
    2.9561   -3.1003   -2.2071 C   0  0  0  0  0  0  0  0  0  0  0  0
    4.1182   -3.0025   -1.4485 C   0  0  0  0  0  0  0  0  0  0  0  0
    4.0234   -2.8772   -0.0257 C   0  0  0  0  0  0  0  0  0  0  0  0
    2.7571   -2.8310    0.5333 C   0  0  0  0  0  0  0  0  0  0  0  0
    1.6030   -2.9276   -0.2362 C   0  0  0  0  0  0  0  0  0  0  0  0
    1.6909   -3.0647   -1.6377 C   0  0  0  0  0  0  0  0  0  0  0  0
    1.1720    3.6639   -0.4493 F   0  0  0  0  0  0  0  0  0  0  0  0
  1  2  1  0  0  0  0
  2  3  1  0  0  0  0
  2  5  1  0  0  0  0
  3  4  1  0  0  0  0
  5  6  4  0  0  0  0
  5 10  4  0  0  0  0
  6  7  4  0  0  0  0
  7  8  4  0  0  0  0
  8  9  4  0  0  0  0
  9 10  4  0  0  0  0
 10 11  1  0  0  0  0
 11 12  4  0  0  0  0
 11 15  4  0  0  0  0
 12 13  1  0  0  0  0
 12 68  4  0  0  0  0
 13 14  1  0  0  0  0
 15 16  1  0  0  0  0
 15 67  4  0  0  0  0
 16 17  1  0  0  0  0
 17 18  1  0  0  0  0
 17 19  1  0  0  0  0
 17 20  1  0  0  0  0
 20 21  1  0  0  0  0
 21 22  1  0  0  0  0
 22 23  1  0  0  0  0
 22 66  2  0  0  0  0
 23 24  1  0  0  0  0
 23 65  1  0  0  0  0
 24 25  1  0  0  0  0
 25 26  1  0  0  0  0
 25 63  1  0  0  0  0
 26 27  1  0  0  0  0
 26 62  2  0  0  0  0
 27 28  1  0  0  0  0
 27 55  1  0  0  0  0
 28 29  1  0  0  0  0
 29 30  1  0  0  0  0
 29 54  2  0  0  0  0
 30 31  1  0  0  0  0
 30 34  1  0  0  0  0
 31 32  1  0  0  0  0
 31 33  1  0  0  0  0
 34 35  1  0  0  0  0
 34 53  1  0  0  0  0
 35 36  1  0  0  0  0
 35 52  2  0  0  0  0
 36 37  1  0  0  0  0
 36 51  1  0  0  0  0
 36 73  1  0  0  0  0
 37 38  1  0  0  0  0
 38 39  1  0  0  0  0
 39 40  1  0  0  0  0
 39 50  1  0  0  0  0
 40 41  1  0  0  0  0
 40 49  2  0  0  0  0
 41 42  1  0  0  0  0
 42 43  1  0  0  0  0
 43 44  1  0  0  0  0
 43 47  1  0  0  0  0
 43 48  1  0  0  0  0
 44 45  1  0  0  0  0
 44 46  1  0  0  0  0
 50 51  1  0  0  0  0
 55 56  1  0  0  0  0
 56 57  1  0  0  0  0
 56 61  1  0  0  0  0
 57 58  1  0  0  0  0
 58 59  1  0  0  0  0
 58 71  1  0  0  0  0
 59 60  1  0  0  0  0
 60 61  1  0  0  0  0
 63 64  1  0  0  0  0
 64 65  1  0  0  0  0
 67 68  4  0  0  0  0
 67 72  4  0  0  0  0
 68 69  4  0  0  0  0
 69 70  4  0  0  0  0
 70 71  4  0  0  0  0
 71 72  4  0  0  0  0
M  END
$$$$
