mol_ETKDG1_53
  PyMOL3.1          3D                             0

 73 79  0  0  0  0  0  0  0  0999 V2000
   -2.1250   -3.5774    4.1804 C   0  0  0  0  0  0  0  0  0  0  0  0
   -2.3782   -2.2098    3.6865 C   0  0  0  0  0  0  0  0  0  0  0  0
   -3.6902   -1.9499    3.2322 O   0  0  0  0  0  0  0  0  0  0  0  0
   -4.0793   -2.5124    2.0013 C   0  0  0  0  0  0  0  0  0  0  0  0
   -2.0290   -1.1703    4.6737 C   0  0  0  0  0  0  0  0  0  0  0  0
   -2.8412   -0.9955    5.7040 N   0  0  0  0  0  0  0  0  0  0  0  0
   -2.5593   -0.1025    6.6782 C   0  0  0  0  0  0  0  0  0  0  0  0
   -1.3943    0.6694    6.6502 C   0  0  0  0  0  0  0  0  0  0  0  0
   -0.5119    0.4931    5.5759 C   0  0  0  0  0  0  0  0  0  0  0  0
   -0.8590   -0.4241    4.5693 C   0  0  0  0  0  0  0  0  0  0  0  0
    0.0168   -0.5527    3.4280 C   0  0  0  0  0  0  0  0  0  0  0  0
    1.1523   -1.2942    3.4234 N   0  0  0  0  0  0  0  0  0  0  0  0
    1.6782   -2.1426    4.5408 C   0  0  0  0  0  0  0  0  0  0  0  0
    2.9299   -1.6994    5.1052 C   0  0  0  0  0  0  0  0  0  0  0  0
   -0.2266    0.0003    2.1437 C   0  0  0  0  0  0  0  0  0  0  0  0
   -1.4149    0.7585    1.6080 C   0  0  0  0  0  0  0  0  0  0  0  0
   -1.3946    2.3298    1.7957 C   0  0  0  0  0  0  0  0  0  0  0  0
   -1.5053    2.7571    3.2434 C   0  0  0  0  0  0  0  0  0  0  0  0
   -2.6397    2.8878    1.1547 C   0  0  0  0  0  0  0  0  0  0  0  0
   -0.1497    2.9446    1.1765 C   0  0  0  0  0  0  0  0  0  0  0  0
   -0.3344    3.2737   -0.2833 O   0  0  0  0  0  0  0  0  0  0  0  0
   -0.0942    4.5363   -0.8715 C   0  0  0  0  0  0  0  0  0  0  0  0
   -0.3482    4.7241   -2.3574 C   0  0  0  0  0  0  0  0  0  0  0  0
   -1.1033    3.6221   -2.8871 N   0  0  0  0  0  0  0  0  0  0  0  0
   -1.4508    3.6531   -4.2309 N   0  0  0  0  0  0  0  0  0  0  0  0
   -1.1641    2.5938   -5.0614 C   0  0  0  0  0  0  0  0  0  0  0  0
   -0.4970    1.3762   -4.4891 C   0  0  0  0  0  0  0  0  0  0  0  0
   -1.0151    0.1456   -5.0292 N   0  0  0  0  0  0  0  0  0  0  0  0
   -1.8885   -0.6299   -4.3692 C   0  0  0  0  0  0  0  0  0  0  0  0
   -2.1764   -1.9731   -4.9539 C   0  0  0  0  0  0  0  0  0  0  0  0
   -3.4362   -2.0535   -5.8596 C   0  0  0  0  0  0  0  0  0  0  0  0
   -3.4192   -3.2321   -6.7727 C   0  0  0  0  0  0  0  0  0  0  0  0
   -3.8165   -0.7769   -6.5275 C   0  0  0  0  0  0  0  0  0  0  0  0
   -2.2265   -2.9198   -3.8359 N   0  0  0  0  0  0  0  0  0  0  0  0
   -1.0359   -3.4440   -3.3626 C   0  0  0  0  0  0  0  0  0  0  0  0
   -0.9013   -4.3812   -2.1827 C   0  0  0  0  0  0  0  0  0  0  0  0
    0.4329   -5.1393   -2.1732 C   0  0  0  0  0  0  0  0  0  0  0  0
    0.5802   -5.9593   -0.9375 C   0  0  0  0  0  0  0  0  0  0  0  0
    0.3317   -5.1463    0.2664 N   0  0  0  0  0  0  0  0  0  0  0  0
    1.1901   -5.1153    1.3295 C   0  0  0  0  0  0  0  0  0  0  0  0
    2.4720   -5.6329    1.2410 C   0  0  0  0  0  0  0  0  0  0  0  0
    3.5502   -6.0415    1.2926 C   0  0  0  0  0  0  0  0  0  0  0  0
    4.8594   -6.5639    1.1448 C   0  0  0  0  0  0  0  0  0  0  0  0
    5.5455   -6.5899    2.3951 N   0  0  0  0  0  0  0  0  0  0  0  0
    5.6000   -7.7607    3.1706 C   0  0  0  0  0  0  0  0  0  0  0  0
    5.9514   -5.3884    3.0059 C   0  0  0  0  0  0  0  0  0  0  0  0
    5.6379   -5.7246    0.1411 C   0  0  0  0  0  0  0  0  0  0  0  0
    4.7752   -7.9583    0.5530 C   0  0  0  0  0  0  0  0  0  0  0  0
    0.8361   -4.5772    2.3857 O   0  0  0  0  0  0  0  0  0  0  0  0
   -0.8684   -4.3597    0.2915 C   0  0  0  0  0  0  0  0  0  0  0  0
   -0.9853   -3.5192   -0.9257 C   0  0  0  0  0  0  0  0  0  0  0  0
    0.0110   -3.0901   -3.9423 O   0  0  0  0  0  0  0  0  0  0  0  0
   -3.5220   -3.1745   -3.1825 C   0  0  0  0  0  0  0  0  0  0  0  0
   -2.3229   -0.2703   -3.2838 O   0  0  0  0  0  0  0  0  0  0  0  0
    1.0659    1.4114   -4.7135 C   0  0  0  0  0  0  0  0  0  0  0  0
    1.8230    0.2226   -4.0479 C   0  0  0  0  0  0  0  0  0  0  0  0
    1.8603    0.4819   -2.5834 C   0  0  0  0  0  0  0  0  0  0  0  0
    2.6285   -0.5085   -1.8590 N   0  0  0  0  0  0  0  0  0  0  0  0
    3.9785   -0.7534   -2.4027 C   0  0  0  0  0  0  0  0  0  0  0  0
    3.9364   -0.9119   -3.9367 C   0  0  0  0  0  0  0  0  0  0  0  0
    3.1707    0.1755   -4.5731 O   0  0  0  0  0  0  0  0  0  0  0  0
   -1.4246    2.6336   -6.2762 O   0  0  0  0  0  0  0  0  0  0  0  0
   -2.1879    4.8449   -4.6635 C   0  0  0  0  0  0  0  0  0  0  0  0
   -1.4850    6.1228   -4.1487 C   0  0  0  0  0  0  0  0  0  0  0  0
   -1.1214    6.0390   -2.6649 C   0  0  0  0  0  0  0  0  0  0  0  0
    0.3312    5.5311   -0.2378 O   0  0  0  0  0  0  0  0  0  0  0  0
    0.8829   -0.4176    1.3880 C   0  0  0  0  0  0  0  0  0  0  0  0
    1.6983   -1.2050    2.1960 C   0  0  0  0  0  0  0  0  0  0  0  0
    2.8832   -1.7886    1.6405 C   0  0  0  0  0  0  0  0  0  0  0  0
    3.1498   -1.5445    0.2905 C   0  0  0  0  0  0  0  0  0  0  0  0
    2.3229   -0.7453   -0.5063 C   0  0  0  0  0  0  0  0  0  0  0  0
    1.1582   -0.1781    0.0468 C   0  0  0  0  0  0  0  0  0  0  0  0
   -1.8987   -5.3329   -2.1847 F   0  0  0  0  0  0  0  0  0  0  0  0
  1  2  1  0  0  0  0
  2  3  1  0  0  0  0
  2  5  1  0  0  0  0
  3  4  1  0  0  0  0
  5  6  4  0  0  0  0
  5 10  4  0  0  0  0
  6  7  4  0  0  0  0
  7  8  4  0  0  0  0
  8  9  4  0  0  0  0
  9 10  4  0  0  0  0
 10 11  1  0  0  0  0
 11 12  4  0  0  0  0
 11 15  4  0  0  0  0
 12 13  1  0  0  0  0
 12 68  4  0  0  0  0
 13 14  1  0  0  0  0
 15 16  1  0  0  0  0
 15 67  4  0  0  0  0
 16 17  1  0  0  0  0
 17 18  1  0  0  0  0
 17 19  1  0  0  0  0
 17 20  1  0  0  0  0
 20 21  1  0  0  0  0
 21 22  1  0  0  0  0
 22 23  1  0  0  0  0
 22 66  2  0  0  0  0
 23 24  1  0  0  0  0
 23 65  1  0  0  0  0
 24 25  1  0  0  0  0
 25 26  1  0  0  0  0
 25 63  1  0  0  0  0
 26 27  1  0  0  0  0
 26 62  2  0  0  0  0
 27 28  1  0  0  0  0
 27 55  1  0  0  0  0
 28 29  1  0  0  0  0
 29 30  1  0  0  0  0
 29 54  2  0  0  0  0
 30 31  1  0  0  0  0
 30 34  1  0  0  0  0
 31 32  1  0  0  0  0
 31 33  1  0  0  0  0
 34 35  1  0  0  0  0
 34 53  1  0  0  0  0
 35 36  1  0  0  0  0
 35 52  2  0  0  0  0
 36 37  1  0  0  0  0
 36 51  1  0  0  0  0
 36 73  1  0  0  0  0
 37 38  1  0  0  0  0
 38 39  1  0  0  0  0
 39 40  1  0  0  0  0
 39 50  1  0  0  0  0
 40 41  1  0  0  0  0
 40 49  2  0  0  0  0
 41 42  1  0  0  0  0
 42 43  1  0  0  0  0
 43 44  1  0  0  0  0
 43 47  1  0  0  0  0
 43 48  1  0  0  0  0
 44 45  1  0  0  0  0
 44 46  1  0  0  0  0
 50 51  1  0  0  0  0
 55 56  1  0  0  0  0
 56 57  1  0  0  0  0
 56 61  1  0  0  0  0
 57 58  1  0  0  0  0
 58 59  1  0  0  0  0
 58 71  1  0  0  0  0
 59 60  1  0  0  0  0
 60 61  1  0  0  0  0
 63 64  1  0  0  0  0
 64 65  1  0  0  0  0
 67 68  4  0  0  0  0
 67 72  4  0  0  0  0
 68 69  4  0  0  0  0
 69 70  4  0  0  0  0
 70 71  4  0  0  0  0
 71 72  4  0  0  0  0
M  END
$$$$
