mol_ETKDG0_337
  PyMOL3.1          3D                             0

 73 79  0  0  0  0  0  0  0  0999 V2000
    4.2878   -2.5259    2.2394 C   0  0  0  0  0  0  0  0  0  0  0  0
    3.8148   -2.4287    0.8428 C   0  0  0  0  0  0  0  0  0  0  0  0
    4.5041   -1.4608    0.0529 O   0  0  0  0  0  0  0  0  0  0  0  0
    3.9712   -0.1672    0.0535 C   0  0  0  0  0  0  0  0  0  0  0  0
    3.8941   -3.7114    0.1109 C   0  0  0  0  0  0  0  0  0  0  0  0
    5.0248   -4.0091   -0.5013 N   0  0  0  0  0  0  0  0  0  0  0  0
    5.1817   -5.1708   -1.1629 C   0  0  0  0  0  0  0  0  0  0  0  0
    4.1638   -6.1215   -1.2214 C   0  0  0  0  0  0  0  0  0  0  0  0
    2.9634   -5.8346   -0.5683 C   0  0  0  0  0  0  0  0  0  0  0  0
    2.8315   -4.6025    0.0795 C   0  0  0  0  0  0  0  0  0  0  0  0
    1.5783   -4.3123    0.7242 C   0  0  0  0  0  0  0  0  0  0  0  0
    1.2712   -4.7576    1.9649 N   0  0  0  0  0  0  0  0  0  0  0  0
    2.1388   -5.5507    2.8939 C   0  0  0  0  0  0  0  0  0  0  0  0
    1.7079   -6.9172    3.0986 C   0  0  0  0  0  0  0  0  0  0  0  0
    0.5472   -3.4794    0.2194 C   0  0  0  0  0  0  0  0  0  0  0  0
    0.4561   -2.6561   -1.0384 C   0  0  0  0  0  0  0  0  0  0  0  0
   -0.0992   -3.3915   -2.3310 C   0  0  0  0  0  0  0  0  0  0  0  0
   -0.3061   -2.3476   -3.4025 C   0  0  0  0  0  0  0  0  0  0  0  0
    0.9112   -4.3305   -2.9057 C   0  0  0  0  0  0  0  0  0  0  0  0
   -1.3808   -4.1310   -2.1005 C   0  0  0  0  0  0  0  0  0  0  0  0
   -2.6732   -3.4052   -2.3350 O   0  0  0  0  0  0  0  0  0  0  0  0
   -3.8965   -4.0490   -2.6963 C   0  0  0  0  0  0  0  0  0  0  0  0
   -5.1379   -3.1965   -2.8743 C   0  0  0  0  0  0  0  0  0  0  0  0
   -4.7986   -1.8069   -2.7797 N   0  0  0  0  0  0  0  0  0  0  0  0
   -5.8075   -0.8723   -2.9775 N   0  0  0  0  0  0  0  0  0  0  0  0
   -6.0595    0.1020   -2.0461 C   0  0  0  0  0  0  0  0  0  0  0  0
   -5.2621    0.0949   -0.7835 C   0  0  0  0  0  0  0  0  0  0  0  0
   -4.9340    1.4163   -0.2906 N   0  0  0  0  0  0  0  0  0  0  0  0
   -3.6853    1.9123   -0.2856 C   0  0  0  0  0  0  0  0  0  0  0  0
   -3.4800    3.1880    0.4599 C   0  0  0  0  0  0  0  0  0  0  0  0
   -3.3957    4.4475   -0.4287 C   0  0  0  0  0  0  0  0  0  0  0  0
   -3.8517    5.6884    0.2456 C   0  0  0  0  0  0  0  0  0  0  0  0
   -3.8393    4.2908   -1.8300 C   0  0  0  0  0  0  0  0  0  0  0  0
   -2.2604    2.9998    1.2735 N   0  0  0  0  0  0  0  0  0  0  0  0
   -2.3580    2.2921    2.4537 C   0  0  0  0  0  0  0  0  0  0  0  0
   -1.1967    1.9103    3.3452 C   0  0  0  0  0  0  0  0  0  0  0  0
   -1.6707    1.3306    4.6911 C   0  0  0  0  0  0  0  0  0  0  0  0
   -0.5370    0.8045    5.4977 C   0  0  0  0  0  0  0  0  0  0  0  0
    0.2947   -0.1181    4.7037 N   0  0  0  0  0  0  0  0  0  0  0  0
    0.6343   -1.3780    5.1179 C   0  0  0  0  0  0  0  0  0  0  0  0
   -0.0665   -2.0305    6.1155 C   0  0  0  0  0  0  0  0  0  0  0  0
   -0.5692   -2.6834    6.9384 C   0  0  0  0  0  0  0  0  0  0  0  0
   -1.3031   -3.3784    7.9248 C   0  0  0  0  0  0  0  0  0  0  0  0
   -0.7859   -4.6748    8.2075 N   0  0  0  0  0  0  0  0  0  0  0  0
    0.4182   -5.1059    7.6525 C   0  0  0  0  0  0  0  0  0  0  0  0
   -1.3787   -5.5205    9.1504 C   0  0  0  0  0  0  0  0  0  0  0  0
   -2.7398   -3.5069    7.4543 C   0  0  0  0  0  0  0  0  0  0  0  0
   -1.2986   -2.5513    9.2000 C   0  0  0  0  0  0  0  0  0  0  0  0
    1.5616   -1.9807    4.5589 O   0  0  0  0  0  0  0  0  0  0  0  0
    0.7359    0.3542    3.4265 C   0  0  0  0  0  0  0  0  0  0  0  0
   -0.4211    0.8222    2.6115 C   0  0  0  0  0  0  0  0  0  0  0  0
   -3.4920    1.9111    2.7861 O   0  0  0  0  0  0  0  0  0  0  0  0
   -0.9663    3.4682    0.7482 C   0  0  0  0  0  0  0  0  0  0  0  0
   -2.7577    1.2701   -0.7656 O   0  0  0  0  0  0  0  0  0  0  0  0
   -6.0788   -0.6710    0.3229 C   0  0  0  0  0  0  0  0  0  0  0  0
   -5.3020   -0.8963    1.6291 C   0  0  0  0  0  0  0  0  0  0  0  0
   -4.3447   -2.0098    1.3787 C   0  0  0  0  0  0  0  0  0  0  0  0
   -3.6602   -2.3850    2.5786 N   0  0  0  0  0  0  0  0  0  0  0  0
   -4.5468   -2.6695    3.7274 C   0  0  0  0  0  0  0  0  0  0  0  0
   -5.5849   -1.5618    3.9014 C   0  0  0  0  0  0  0  0  0  0  0  0
   -6.2645   -1.2717    2.6378 O   0  0  0  0  0  0  0  0  0  0  0  0
   -6.9643    0.9363   -2.1907 O   0  0  0  0  0  0  0  0  0  0  0  0
   -6.5211   -0.9688   -4.2476 C   0  0  0  0  0  0  0  0  0  0  0  0
   -6.9755   -2.4320   -4.4640 C   0  0  0  0  0  0  0  0  0  0  0  0
   -5.8395   -3.4364   -4.2373 C   0  0  0  0  0  0  0  0  0  0  0  0
   -4.0261   -5.2718   -2.8982 O   0  0  0  0  0  0  0  0  0  0  0  0
   -0.4214   -3.4992    1.2346 C   0  0  0  0  0  0  0  0  0  0  0  0
    0.0555   -4.2934    2.2744 C   0  0  0  0  0  0  0  0  0  0  0  0
   -0.7385   -4.4701    3.4444 C   0  0  0  0  0  0  0  0  0  0  0  0
   -1.9613   -3.8147    3.4894 C   0  0  0  0  0  0  0  0  0  0  0  0
   -2.4230   -3.0159    2.4601 C   0  0  0  0  0  0  0  0  0  0  0  0
   -1.6399   -2.8318    1.2968 C   0  0  0  0  0  0  0  0  0  0  0  0
   -0.3901    2.9980    3.6154 F   0  0  0  0  0  0  0  0  0  0  0  0
  1  2  1  0  0  0  0
  2  3  1  0  0  0  0
  2  5  1  0  0  0  0
  3  4  1  0  0  0  0
  5  6  4  0  0  0  0
  5 10  4  0  0  0  0
  6  7  4  0  0  0  0
  7  8  4  0  0  0  0
  8  9  4  0  0  0  0
  9 10  4  0  0  0  0
 10 11  1  0  0  0  0
 11 12  4  0  0  0  0
 11 15  4  0  0  0  0
 12 13  1  0  0  0  0
 12 68  4  0  0  0  0
 13 14  1  0  0  0  0
 15 16  1  0  0  0  0
 15 67  4  0  0  0  0
 16 17  1  0  0  0  0
 17 18  1  0  0  0  0
 17 19  1  0  0  0  0
 17 20  1  0  0  0  0
 20 21  1  0  0  0  0
 21 22  1  0  0  0  0
 22 23  1  0  0  0  0
 22 66  2  0  0  0  0
 23 24  1  0  0  0  0
 23 65  1  0  0  0  0
 24 25  1  0  0  0  0
 25 26  1  0  0  0  0
 25 63  1  0  0  0  0
 26 27  1  0  0  0  0
 26 62  2  0  0  0  0
 27 28  1  0  0  0  0
 27 55  1  0  0  0  0
 28 29  1  0  0  0  0
 29 30  1  0  0  0  0
 29 54  2  0  0  0  0
 30 31  1  0  0  0  0
 30 34  1  0  0  0  0
 31 32  1  0  0  0  0
 31 33  1  0  0  0  0
 34 35  1  0  0  0  0
 34 53  1  0  0  0  0
 35 36  1  0  0  0  0
 35 52  2  0  0  0  0
 36 37  1  0  0  0  0
 36 51  1  0  0  0  0
 36 73  1  0  0  0  0
 37 38  1  0  0  0  0
 38 39  1  0  0  0  0
 39 40  1  0  0  0  0
 39 50  1  0  0  0  0
 40 41  1  0  0  0  0
 40 49  2  0  0  0  0
 41 42  1  0  0  0  0
 42 43  1  0  0  0  0
 43 44  1  0  0  0  0
 43 47  1  0  0  0  0
 43 48  1  0  0  0  0
 44 45  1  0  0  0  0
 44 46  1  0  0  0  0
 50 51  1  0  0  0  0
 55 56  1  0  0  0  0
 56 57  1  0  0  0  0
 56 61  1  0  0  0  0
 57 58  1  0  0  0  0
 58 59  1  0  0  0  0
 58 71  1  0  0  0  0
 59 60  1  0  0  0  0
 60 61  1  0  0  0  0
 63 64  1  0  0  0  0
 64 65  1  0  0  0  0
 67 68  4  0  0  0  0
 67 72  4  0  0  0  0
 68 69  4  0  0  0  0
 69 70  4  0  0  0  0
 70 71  4  0  0  0  0
 71 72  4  0  0  0  0
M  END
$$$$
