mol_ETKDG1_93
  PyMOL3.1          3D                             0

 73 79  0  0  0  0  0  0  0  0999 V2000
   -5.5039   -0.0150   -4.2267 C   0  0  0  0  0  0  0  0  0  0  0  0
   -4.7247   -1.1072   -3.6041 C   0  0  0  0  0  0  0  0  0  0  0  0
   -5.4936   -2.1714   -3.0781 O   0  0  0  0  0  0  0  0  0  0  0  0
   -6.2145   -1.9102   -1.8997 C   0  0  0  0  0  0  0  0  0  0  0  0
   -3.7651   -1.7044   -4.5476 C   0  0  0  0  0  0  0  0  0  0  0  0
   -4.2558   -2.4006   -5.5595 N   0  0  0  0  0  0  0  0  0  0  0  0
   -3.4517   -2.9176   -6.5114 C   0  0  0  0  0  0  0  0  0  0  0  0
   -2.0674   -2.7370   -6.4781 C   0  0  0  0  0  0  0  0  0  0  0  0
   -1.5275   -2.0041   -5.4185 C   0  0  0  0  0  0  0  0  0  0  0  0
   -2.3975   -1.5082   -4.4307 C   0  0  0  0  0  0  0  0  0  0  0  0
   -1.8068   -0.7982   -3.3311 C   0  0  0  0  0  0  0  0  0  0  0  0
   -1.3700    0.4759   -3.4332 N   0  0  0  0  0  0  0  0  0  0  0  0
   -1.4876    1.4021   -4.6142 C   0  0  0  0  0  0  0  0  0  0  0  0
   -0.2237    1.5646   -5.3428 C   0  0  0  0  0  0  0  0  0  0  0  0
   -1.6185   -1.2854   -2.0102 C   0  0  0  0  0  0  0  0  0  0  0  0
   -2.0867   -2.5508   -1.3445 C   0  0  0  0  0  0  0  0  0  0  0  0
   -1.1441   -3.8111   -1.4902 C   0  0  0  0  0  0  0  0  0  0  0  0
   -1.8284   -4.9693   -0.7853 C   0  0  0  0  0  0  0  0  0  0  0  0
   -1.0061   -4.2581   -2.9011 C   0  0  0  0  0  0  0  0  0  0  0  0
    0.2241   -3.5535   -0.9082 C   0  0  0  0  0  0  0  0  0  0  0  0
    0.4306   -3.8367    0.5526 O   0  0  0  0  0  0  0  0  0  0  0  0
    1.5324   -4.6081    1.0627 C   0  0  0  0  0  0  0  0  0  0  0  0
    1.7450   -4.6860    2.5619 C   0  0  0  0  0  0  0  0  0  0  0  0
    0.5622   -4.3063    3.2726 N   0  0  0  0  0  0  0  0  0  0  0  0
    0.6166   -4.3719    4.6667 N   0  0  0  0  0  0  0  0  0  0  0  0
    0.3510   -3.2861    5.4436 C   0  0  0  0  0  0  0  0  0  0  0  0
   -0.0284   -2.0074    4.7785 C   0  0  0  0  0  0  0  0  0  0  0  0
   -0.9825   -1.2546    5.5500 N   0  0  0  0  0  0  0  0  0  0  0  0
   -2.2678   -1.2176    5.2684 C   0  0  0  0  0  0  0  0  0  0  0  0
   -3.0909   -0.2226    6.0083 C   0  0  0  0  0  0  0  0  0  0  0  0
   -3.8692   -0.8060    7.2286 C   0  0  0  0  0  0  0  0  0  0  0  0
   -4.5919    0.2415    8.0127 C   0  0  0  0  0  0  0  0  0  0  0  0
   -3.0114   -1.6802    8.0955 C   0  0  0  0  0  0  0  0  0  0  0  0
   -3.9491    0.3855    5.0031 N   0  0  0  0  0  0  0  0  0  0  0  0
   -3.4224    1.3736    4.2117 C   0  0  0  0  0  0  0  0  0  0  0  0
   -4.1353    1.9910    3.0499 C   0  0  0  0  0  0  0  0  0  0  0  0
   -3.4066    3.2041    2.4716 C   0  0  0  0  0  0  0  0  0  0  0  0
   -4.0916    3.6929    1.2531 C   0  0  0  0  0  0  0  0  0  0  0  0
   -4.3306    2.5957    0.3027 N   0  0  0  0  0  0  0  0  0  0  0  0
   -4.0369    2.6749   -1.0114 C   0  0  0  0  0  0  0  0  0  0  0  0
   -3.5179    3.8266   -1.5426 C   0  0  0  0  0  0  0  0  0  0  0  0
   -3.1620    4.7759   -2.0859 C   0  0  0  0  0  0  0  0  0  0  0  0
   -2.7771    6.0031   -2.6333 C   0  0  0  0  0  0  0  0  0  0  0  0
   -3.8283    6.4565   -3.4669 N   0  0  0  0  0  0  0  0  0  0  0  0
   -4.2630    5.6383   -4.5352 C   0  0  0  0  0  0  0  0  0  0  0  0
   -4.5216    7.6506   -3.2539 C   0  0  0  0  0  0  0  0  0  0  0  0
   -2.4768    6.9686   -1.5098 C   0  0  0  0  0  0  0  0  0  0  0  0
   -1.5010    5.8728   -3.4569 C   0  0  0  0  0  0  0  0  0  0  0  0
   -4.2295    1.6983   -1.7569 O   0  0  0  0  0  0  0  0  0  0  0  0
   -4.9060    1.3929    0.8019 C   0  0  0  0  0  0  0  0  0  0  0  0
   -4.1932    0.9117    1.9827 C   0  0  0  0  0  0  0  0  0  0  0  0
   -2.2642    1.7558    4.4647 O   0  0  0  0  0  0  0  0  0  0  0  0
   -5.2941   -0.1844    4.7833 C   0  0  0  0  0  0  0  0  0  0  0  0
   -2.7036   -1.8883    4.3485 O   0  0  0  0  0  0  0  0  0  0  0  0
    1.2320   -1.0946    4.5694 C   0  0  0  0  0  0  0  0  0  0  0  0
    0.9077    0.2411    3.8724 C   0  0  0  0  0  0  0  0  0  0  0  0
    0.8130   -0.0396    2.4198 C   0  0  0  0  0  0  0  0  0  0  0  0
    0.6095    1.1704    1.6645 N   0  0  0  0  0  0  0  0  0  0  0  0
    1.5794    2.2474    1.9739 C   0  0  0  0  0  0  0  0  0  0  0  0
    1.7317    2.4377    3.4867 C   0  0  0  0  0  0  0  0  0  0  0  0
    1.9778    1.1602    4.1520 O   0  0  0  0  0  0  0  0  0  0  0  0
    0.4540   -3.3228    6.6845 O   0  0  0  0  0  0  0  0  0  0  0  0
    0.9248   -5.6850    5.2219 C   0  0  0  0  0  0  0  0  0  0  0  0
    2.2164   -6.2069    4.5549 C   0  0  0  0  0  0  0  0  0  0  0  0
    2.1486   -6.1176    3.0303 C   0  0  0  0  0  0  0  0  0  0  0  0
    2.3419   -5.2484    0.3528 O   0  0  0  0  0  0  0  0  0  0  0  0
   -0.9628   -0.2309   -1.3627 C   0  0  0  0  0  0  0  0  0  0  0  0
   -0.8460    0.8244   -2.2581 C   0  0  0  0  0  0  0  0  0  0  0  0
   -0.2443    2.0488   -1.8320 C   0  0  0  0  0  0  0  0  0  0  0  0
    0.1998    2.1238   -0.5182 C   0  0  0  0  0  0  0  0  0  0  0  0
    0.1019    1.0546    0.3659 C   0  0  0  0  0  0  0  0  0  0  0  0
   -0.5290   -0.1452   -0.0450 C   0  0  0  0  0  0  0  0  0  0  0  0
   -5.4064    2.4093    3.4148 F   0  0  0  0  0  0  0  0  0  0  0  0
  1  2  1  0  0  0  0
  2  3  1  0  0  0  0
  2  5  1  0  0  0  0
  3  4  1  0  0  0  0
  5  6  4  0  0  0  0
  5 10  4  0  0  0  0
  6  7  4  0  0  0  0
  7  8  4  0  0  0  0
  8  9  4  0  0  0  0
  9 10  4  0  0  0  0
 10 11  1  0  0  0  0
 11 12  4  0  0  0  0
 11 15  4  0  0  0  0
 12 13  1  0  0  0  0
 12 68  4  0  0  0  0
 13 14  1  0  0  0  0
 15 16  1  0  0  0  0
 15 67  4  0  0  0  0
 16 17  1  0  0  0  0
 17 18  1  0  0  0  0
 17 19  1  0  0  0  0
 17 20  1  0  0  0  0
 20 21  1  0  0  0  0
 21 22  1  0  0  0  0
 22 23  1  0  0  0  0
 22 66  2  0  0  0  0
 23 24  1  0  0  0  0
 23 65  1  0  0  0  0
 24 25  1  0  0  0  0
 25 26  1  0  0  0  0
 25 63  1  0  0  0  0
 26 27  1  0  0  0  0
 26 62  2  0  0  0  0
 27 28  1  0  0  0  0
 27 55  1  0  0  0  0
 28 29  1  0  0  0  0
 29 30  1  0  0  0  0
 29 54  2  0  0  0  0
 30 31  1  0  0  0  0
 30 34  1  0  0  0  0
 31 32  1  0  0  0  0
 31 33  1  0  0  0  0
 34 35  1  0  0  0  0
 34 53  1  0  0  0  0
 35 36  1  0  0  0  0
 35 52  2  0  0  0  0
 36 37  1  0  0  0  0
 36 51  1  0  0  0  0
 36 73  1  0  0  0  0
 37 38  1  0  0  0  0
 38 39  1  0  0  0  0
 39 40  1  0  0  0  0
 39 50  1  0  0  0  0
 40 41  1  0  0  0  0
 40 49  2  0  0  0  0
 41 42  1  0  0  0  0
 42 43  1  0  0  0  0
 43 44  1  0  0  0  0
 43 47  1  0  0  0  0
 43 48  1  0  0  0  0
 44 45  1  0  0  0  0
 44 46  1  0  0  0  0
 50 51  1  0  0  0  0
 55 56  1  0  0  0  0
 56 57  1  0  0  0  0
 56 61  1  0  0  0  0
 57 58  1  0  0  0  0
 58 59  1  0  0  0  0
 58 71  1  0  0  0  0
 59 60  1  0  0  0  0
 60 61  1  0  0  0  0
 63 64  1  0  0  0  0
 64 65  1  0  0  0  0
 67 68  4  0  0  0  0
 67 72  4  0  0  0  0
 68 69  4  0  0  0  0
 69 70  4  0  0  0  0
 70 71  4  0  0  0  0
 71 72  4  0  0  0  0
M  END
$$$$
