mol_ETKDG2_109
  PyMOL3.1          3D                             0

 73 79  0  0  0  0  0  0  0  0999 V2000
   -4.8782   -5.1340    0.3078 C   0  0  0  0  0  0  0  0  0  0  0  0
   -4.8097   -3.6614    0.3810 C   0  0  0  0  0  0  0  0  0  0  0  0
   -5.6921   -2.9664   -0.4887 O   0  0  0  0  0  0  0  0  0  0  0  0
   -5.3532   -2.9398   -1.8620 C   0  0  0  0  0  0  0  0  0  0  0  0
   -5.0571   -3.1500    1.7509 C   0  0  0  0  0  0  0  0  0  0  0  0
   -6.3031   -3.1146    2.1899 N   0  0  0  0  0  0  0  0  0  0  0  0
   -6.5953   -2.6941    3.4392 C   0  0  0  0  0  0  0  0  0  0  0  0
   -5.5966   -2.2879    4.3264 C   0  0  0  0  0  0  0  0  0  0  0  0
   -4.2724   -2.3287    3.8857 C   0  0  0  0  0  0  0  0  0  0  0  0
   -4.0191   -2.7522    2.5790 C   0  0  0  0  0  0  0  0  0  0  0  0
   -2.6562   -2.7322    2.1290 C   0  0  0  0  0  0  0  0  0  0  0  0
   -1.7627   -3.7218    2.3652 N   0  0  0  0  0  0  0  0  0  0  0  0
   -2.0030   -5.0252    3.0650 C   0  0  0  0  0  0  0  0  0  0  0  0
   -1.3826   -5.1176    4.3799 C   0  0  0  0  0  0  0  0  0  0  0  0
   -2.0870   -1.7275    1.3168 C   0  0  0  0  0  0  0  0  0  0  0  0
   -2.6849   -0.5398    0.6565 C   0  0  0  0  0  0  0  0  0  0  0  0
   -2.7493    0.8409    1.3979 C   0  0  0  0  0  0  0  0  0  0  0  0
   -4.0097    0.9321    2.2581 C   0  0  0  0  0  0  0  0  0  0  0  0
   -2.9254    1.8507    0.3189 C   0  0  0  0  0  0  0  0  0  0  0  0
   -1.5239    1.2122    2.2700 C   0  0  0  0  0  0  0  0  0  0  0  0
   -0.5160    2.1040    1.5781 O   0  0  0  0  0  0  0  0  0  0  0  0
    0.0365    3.3005    2.1072 C   0  0  0  0  0  0  0  0  0  0  0  0
    1.0207    4.0773    1.2291 C   0  0  0  0  0  0  0  0  0  0  0  0
    0.6031    3.9539   -0.1330 N   0  0  0  0  0  0  0  0  0  0  0  0
    1.3211    4.6275   -1.1100 N   0  0  0  0  0  0  0  0  0  0  0  0
    1.8512    3.9617   -2.1814 C   0  0  0  0  0  0  0  0  0  0  0  0
    1.7337    2.4686   -2.2183 C   0  0  0  0  0  0  0  0  0  0  0  0
    1.3636    1.9636   -3.5256 N   0  0  0  0  0  0  0  0  0  0  0  0
    0.1223    1.5189   -3.8319 C   0  0  0  0  0  0  0  0  0  0  0  0
   -0.0184    0.8730   -5.1710 C   0  0  0  0  0  0  0  0  0  0  0  0
   -0.8041    1.7537   -6.2044 C   0  0  0  0  0  0  0  0  0  0  0  0
   -0.2270    3.1168   -6.3246 C   0  0  0  0  0  0  0  0  0  0  0  0
   -0.9287    1.0857   -7.5429 C   0  0  0  0  0  0  0  0  0  0  0  0
   -0.6406   -0.4338   -4.9336 N   0  0  0  0  0  0  0  0  0  0  0  0
    0.1614   -1.4883   -4.5507 C   0  0  0  0  0  0  0  0  0  0  0  0
   -0.3336   -2.8734   -4.2200 C   0  0  0  0  0  0  0  0  0  0  0  0
    0.8145   -3.8773   -4.0404 C   0  0  0  0  0  0  0  0  0  0  0  0
    0.3192   -5.2090   -3.6315 C   0  0  0  0  0  0  0  0  0  0  0  0
   -0.5972   -5.1126   -2.4865 N   0  0  0  0  0  0  0  0  0  0  0  0
   -0.5027   -5.9026   -1.3815 C   0  0  0  0  0  0  0  0  0  0  0  0
    0.6208   -6.6484   -1.1174 C   0  0  0  0  0  0  0  0  0  0  0  0
    1.4901   -7.3534   -0.8173 C   0  0  0  0  0  0  0  0  0  0  0  0
    2.6254   -8.1395   -0.5919 C   0  0  0  0  0  0  0  0  0  0  0  0
    2.3129   -9.4840   -0.2404 N   0  0  0  0  0  0  0  0  0  0  0  0
    3.3145  -10.4583   -0.1329 C   0  0  0  0  0  0  0  0  0  0  0  0
    1.0260   -9.8654    0.1526 C   0  0  0  0  0  0  0  0  0  0  0  0
    3.4593   -7.5023    0.5168 C   0  0  0  0  0  0  0  0  0  0  0  0
    3.4612   -8.1266   -1.8618 C   0  0  0  0  0  0  0  0  0  0  0  0
   -1.4349   -5.9240   -0.5626 O   0  0  0  0  0  0  0  0  0  0  0  0
   -1.6384   -4.1345   -2.5578 C   0  0  0  0  0  0  0  0  0  0  0  0
   -1.0960   -2.8037   -2.9096 C   0  0  0  0  0  0  0  0  0  0  0  0
    1.3775   -1.2714   -4.4592 O   0  0  0  0  0  0  0  0  0  0  0  0
   -2.1043   -0.5508   -4.9990 C   0  0  0  0  0  0  0  0  0  0  0  0
   -0.7801    1.5449   -3.0157 O   0  0  0  0  0  0  0  0  0  0  0  0
    3.1067    1.8443   -1.7718 C   0  0  0  0  0  0  0  0  0  0  0  0
    3.1641    0.2985   -1.7495 C   0  0  0  0  0  0  0  0  0  0  0  0
    2.4278   -0.1581   -0.5505 C   0  0  0  0  0  0  0  0  0  0  0  0
    2.4904   -1.5899   -0.4014 N   0  0  0  0  0  0  0  0  0  0  0  0
    3.8630   -2.1337   -0.3792 C   0  0  0  0  0  0  0  0  0  0  0  0
    4.6605   -1.5748   -1.5683 C   0  0  0  0  0  0  0  0  0  0  0  0
    4.5566   -0.1097   -1.6385 O   0  0  0  0  0  0  0  0  0  0  0  0
    2.4697    4.5518   -3.0819 O   0  0  0  0  0  0  0  0  0  0  0  0
    1.3974    6.0763   -0.9403 C   0  0  0  0  0  0  0  0  0  0  0  0
    1.8802    6.3740    0.5037 C   0  0  0  0  0  0  0  0  0  0  0  0
    1.0783    5.6059    1.5604 C   0  0  0  0  0  0  0  0  0  0  0  0
   -0.2388    3.7304    3.2409 O   0  0  0  0  0  0  0  0  0  0  0  0
   -0.7706   -2.1613    1.1375 C   0  0  0  0  0  0  0  0  0  0  0  0
   -0.6076   -3.3765    1.7898 C   0  0  0  0  0  0  0  0  0  0  0  0
    0.6603   -4.0443    1.7258 C   0  0  0  0  0  0  0  0  0  0  0  0
    1.6654   -3.4230    0.9783 C   0  0  0  0  0  0  0  0  0  0  0  0
    1.4690   -2.1996    0.3377 C   0  0  0  0  0  0  0  0  0  0  0  0
    0.2310   -1.5608    0.3999 C   0  0  0  0  0  0  0  0  0  0  0  0
   -1.1516   -3.3433   -5.2315 F   0  0  0  0  0  0  0  0  0  0  0  0
  1  2  1  0  0  0  0
  2  3  1  0  0  0  0
  2  5  1  0  0  0  0
  3  4  1  0  0  0  0
  5  6  4  0  0  0  0
  5 10  4  0  0  0  0
  6  7  4  0  0  0  0
  7  8  4  0  0  0  0
  8  9  4  0  0  0  0
  9 10  4  0  0  0  0
 10 11  1  0  0  0  0
 11 12  4  0  0  0  0
 11 15  4  0  0  0  0
 12 13  1  0  0  0  0
 12 68  4  0  0  0  0
 13 14  1  0  0  0  0
 15 16  1  0  0  0  0
 15 67  4  0  0  0  0
 16 17  1  0  0  0  0
 17 18  1  0  0  0  0
 17 19  1  0  0  0  0
 17 20  1  0  0  0  0
 20 21  1  0  0  0  0
 21 22  1  0  0  0  0
 22 23  1  0  0  0  0
 22 66  2  0  0  0  0
 23 24  1  0  0  0  0
 23 65  1  0  0  0  0
 24 25  1  0  0  0  0
 25 26  1  0  0  0  0
 25 63  1  0  0  0  0
 26 27  1  0  0  0  0
 26 62  2  0  0  0  0
 27 28  1  0  0  0  0
 27 55  1  0  0  0  0
 28 29  1  0  0  0  0
 29 30  1  0  0  0  0
 29 54  2  0  0  0  0
 30 31  1  0  0  0  0
 30 34  1  0  0  0  0
 31 32  1  0  0  0  0
 31 33  1  0  0  0  0
 34 35  1  0  0  0  0
 34 53  1  0  0  0  0
 35 36  1  0  0  0  0
 35 52  2  0  0  0  0
 36 37  1  0  0  0  0
 36 51  1  0  0  0  0
 36 73  1  0  0  0  0
 37 38  1  0  0  0  0
 38 39  1  0  0  0  0
 39 40  1  0  0  0  0
 39 50  1  0  0  0  0
 40 41  1  0  0  0  0
 40 49  2  0  0  0  0
 41 42  1  0  0  0  0
 42 43  1  0  0  0  0
 43 44  1  0  0  0  0
 43 47  1  0  0  0  0
 43 48  1  0  0  0  0
 44 45  1  0  0  0  0
 44 46  1  0  0  0  0
 50 51  1  0  0  0  0
 55 56  1  0  0  0  0
 56 57  1  0  0  0  0
 56 61  1  0  0  0  0
 57 58  1  0  0  0  0
 58 59  1  0  0  0  0
 58 71  1  0  0  0  0
 59 60  1  0  0  0  0
 60 61  1  0  0  0  0
 63 64  1  0  0  0  0
 64 65  1  0  0  0  0
 67 68  4  0  0  0  0
 67 72  4  0  0  0  0
 68 69  4  0  0  0  0
 69 70  4  0  0  0  0
 70 71  4  0  0  0  0
 71 72  4  0  0  0  0
M  END
$$$$
