mol_bioactive_23
  PyMOL3.1          3D                             0

 73 79  0  0  0  0  0  0  0  0999 V2000
    3.1620   -3.8807    7.6037 C   0  0  0  0  0  0  0  0  0  0  0  0
    1.8477   -3.2340    7.2889 C   0  0  0  0  0  0  0  0  0  0  0  0
    1.2093   -2.6932    8.4353 O   0  0  0  0  0  0  0  0  0  0  0  0
    1.8535   -1.5931    9.0794 C   0  0  0  0  0  0  0  0  0  0  0  0
    0.8952   -4.1567    6.5695 C   0  0  0  0  0  0  0  0  0  0  0  0
    0.5569   -5.2766    7.1921 N   0  0  0  0  0  0  0  0  0  0  0  0
   -0.2407   -6.1957    6.6021 C   0  0  0  0  0  0  0  0  0  0  0  0
   -0.7384   -6.0161    5.3091 C   0  0  0  0  0  0  0  0  0  0  0  0
   -0.3887   -4.8452    4.6340 C   0  0  0  0  0  0  0  0  0  0  0  0
    0.4179   -3.9088    5.2721 C   0  0  0  0  0  0  0  0  0  0  0  0
    0.7321   -2.6707    4.5815 C   0  0  0  0  0  0  0  0  0  0  0  0
    1.9305   -2.3942    4.0086 N   0  0  0  0  0  0  0  0  0  0  0  0
    3.0864   -3.3333    3.8434 C   0  0  0  0  0  0  0  0  0  0  0  0
    4.3176   -2.9375    4.5187 C   0  0  0  0  0  0  0  0  0  0  0  0
   -0.1610   -1.5828    4.3863 C   0  0  0  0  0  0  0  0  0  0  0  0
   -1.6450   -1.4929    4.5830 C   0  0  0  0  0  0  0  0  0  0  0  0
   -2.2154   -1.0209    5.9523 C   0  0  0  0  0  0  0  0  0  0  0  0
   -3.7407   -1.2212    5.9189 C   0  0  0  0  0  0  0  0  0  0  0  0
   -1.7640   -1.8507    7.1042 C   0  0  0  0  0  0  0  0  0  0  0  0
   -1.8519    0.4306    6.1502 C   0  0  0  0  0  0  0  0  0  0  0  0
   -2.7480    1.3964    5.4018 O   0  0  0  0  0  0  0  0  0  0  0  0
   -3.4413    2.4901    6.0120 C   0  0  0  0  0  0  0  0  0  0  0  0
   -4.2920    3.4139    5.1653 C   0  0  0  0  0  0  0  0  0  0  0  0
   -4.4552    2.9274    3.8234 N   0  0  0  0  0  0  0  0  0  0  0  0
   -5.2427    3.6965    2.9562 N   0  0  0  0  0  0  0  0  0  0  0  0
   -4.7630    4.1161    1.7353 C   0  0  0  0  0  0  0  0  0  0  0  0
   -3.3861    3.6852    1.2859 C   0  0  0  0  0  0  0  0  0  0  0  0
   -3.3474    3.4299   -0.1515 N   0  0  0  0  0  0  0  0  0  0  0  0
   -3.5009    2.2365   -0.7546 C   0  0  0  0  0  0  0  0  0  0  0  0
   -3.3173    2.2080   -2.2472 C   0  0  0  0  0  0  0  0  0  0  0  0
   -4.6550    2.1661   -3.0661 C   0  0  0  0  0  0  0  0  0  0  0  0
   -4.4468    2.3791   -4.5344 C   0  0  0  0  0  0  0  0  0  0  0  0
   -5.7249    3.0495   -2.5068 C   0  0  0  0  0  0  0  0  0  0  0  0
   -2.4265    1.0972   -2.5806 N   0  0  0  0  0  0  0  0  0  0  0  0
   -1.0555    1.2846   -2.4757 C   0  0  0  0  0  0  0  0  0  0  0  0
   -0.0037    0.2199   -2.7322 C   0  0  0  0  0  0  0  0  0  0  0  0
    1.4403    0.7577   -2.5891 C   0  0  0  0  0  0  0  0  0  0  0  0
    2.4716   -0.3311   -2.6857 C   0  0  0  0  0  0  0  0  0  0  0  0
    2.1270   -1.4433   -1.7721 N   0  0  0  0  0  0  0  0  0  0  0  0
    2.9721   -1.9741   -0.8250 C   0  0  0  0  0  0  0  0  0  0  0  0
    4.2238   -1.4581   -0.5691 C   0  0  0  0  0  0  0  0  0  0  0  0
    5.3208   -1.1681   -0.2957 C   0  0  0  0  0  0  0  0  0  0  0  0
    6.6194   -0.6718   -0.0742 C   0  0  0  0  0  0  0  0  0  0  0  0
    7.6200   -1.6990   -0.1270 N   0  0  0  0  0  0  0  0  0  0  0  0
    7.3506   -2.9866    0.3728 C   0  0  0  0  0  0  0  0  0  0  0  0
    8.9610   -1.4279   -0.4686 C   0  0  0  0  0  0  0  0  0  0  0  0
    6.6858    0.0137    1.2956 C   0  0  0  0  0  0  0  0  0  0  0  0
    6.8994    0.3794   -1.1301 C   0  0  0  0  0  0  0  0  0  0  0  0
    2.5958   -2.9366   -0.1232 O   0  0  0  0  0  0  0  0  0  0  0  0
    0.8045   -1.9676   -1.8865 C   0  0  0  0  0  0  0  0  0  0  0  0
   -0.1919   -0.8756   -1.6991 C   0  0  0  0  0  0  0  0  0  0  0  0
   -0.6679    2.4136   -2.1281 O   0  0  0  0  0  0  0  0  0  0  0  0
   -3.0193   -0.2140   -2.9141 C   0  0  0  0  0  0  0  0  0  0  0  0
   -3.6617    1.2281   -0.0827 O   0  0  0  0  0  0  0  0  0  0  0  0
   -2.3301    4.8028    1.6663 C   0  0  0  0  0  0  0  0  0  0  0  0
   -0.8144    4.5197    1.9202 C   0  0  0  0  0  0  0  0  0  0  0  0
   -0.5079    3.1184    2.1799 C   0  0  0  0  0  0  0  0  0  0  0  0
    0.8861    2.7543    2.2238 N   0  0  0  0  0  0  0  0  0  0  0  0
    1.8822    3.6845    1.7848 C   0  0  0  0  0  0  0  0  0  0  0  0
    1.4058    4.8980    1.0566 C   0  0  0  0  0  0  0  0  0  0  0  0
   -0.0207    5.0477    0.8316 O   0  0  0  0  0  0  0  0  0  0  0  0
   -5.4264    4.8855    1.0121 O   0  0  0  0  0  0  0  0  0  0  0  0
   -6.6062    3.9654    3.4234 C   0  0  0  0  0  0  0  0  0  0  0  0
   -6.5745    4.4994    4.8732 C   0  0  0  0  0  0  0  0  0  0  0  0
   -5.7003    3.6465    5.7921 C   0  0  0  0  0  0  0  0  0  0  0  0
   -3.3814    2.7548    7.2388 O   0  0  0  0  0  0  0  0  0  0  0  0
    0.6244   -0.5983    3.7490 C   0  0  0  0  0  0  0  0  0  0  0  0
    1.8853   -1.1386    3.5178 C   0  0  0  0  0  0  0  0  0  0  0  0
    2.8595   -0.3577    2.8139 C   0  0  0  0  0  0  0  0  0  0  0  0
    2.4929    0.9285    2.4046 C   0  0  0  0  0  0  0  0  0  0  0  0
    1.2235    1.4677    2.6541 C   0  0  0  0  0  0  0  0  0  0  0  0
    0.2675    0.6878    3.3448 C   0  0  0  0  0  0  0  0  0  0  0  0
   -0.1453   -0.2926   -4.0103 F   0  0  0  0  0  0  0  0  0  0  0  0
  1  2  1  0  0  0  0
  2  3  1  0  0  0  0
  2  5  1  0  0  0  0
  3  4  1  0  0  0  0
  5  6  4  0  0  0  0
  5 10  4  0  0  0  0
  6  7  4  0  0  0  0
  7  8  4  0  0  0  0
  8  9  4  0  0  0  0
  9 10  4  0  0  0  0
 10 11  1  0  0  0  0
 11 12  4  0  0  0  0
 11 15  4  0  0  0  0
 12 13  1  0  0  0  0
 12 68  4  0  0  0  0
 13 14  1  0  0  0  0
 15 16  1  0  0  0  0
 15 67  4  0  0  0  0
 16 17  1  0  0  0  0
 17 18  1  0  0  0  0
 17 19  1  0  0  0  0
 17 20  1  0  0  0  0
 20 21  1  0  0  0  0
 21 22  1  0  0  0  0
 22 23  1  0  0  0  0
 22 66  2  0  0  0  0
 23 24  1  0  0  0  0
 23 65  1  0  0  0  0
 24 25  1  0  0  0  0
 25 26  1  0  0  0  0
 25 63  1  0  0  0  0
 26 27  1  0  0  0  0
 26 62  2  0  0  0  0
 27 28  1  0  0  0  0
 27 55  1  0  0  0  0
 28 29  1  0  0  0  0
 29 30  1  0  0  0  0
 29 54  2  0  0  0  0
 30 31  1  0  0  0  0
 30 34  1  0  0  0  0
 31 32  1  0  0  0  0
 31 33  1  0  0  0  0
 34 35  1  0  0  0  0
 34 53  1  0  0  0  0
 35 36  1  0  0  0  0
 35 52  2  0  0  0  0
 36 37  1  0  0  0  0
 36 51  1  0  0  0  0
 36 73  1  0  0  0  0
 37 38  1  0  0  0  0
 38 39  1  0  0  0  0
 39 40  1  0  0  0  0
 39 50  1  0  0  0  0
 40 41  1  0  0  0  0
 40 49  2  0  0  0  0
 41 42  1  0  0  0  0
 42 43  1  0  0  0  0
 43 44  1  0  0  0  0
 43 47  1  0  0  0  0
 43 48  1  0  0  0  0
 44 45  1  0  0  0  0
 44 46  1  0  0  0  0
 50 51  1  0  0  0  0
 55 56  1  0  0  0  0
 56 57  1  0  0  0  0
 56 61  1  0  0  0  0
 57 58  1  0  0  0  0
 58 59  1  0  0  0  0
 58 71  1  0  0  0  0
 59 60  1  0  0  0  0
 60 61  1  0  0  0  0
 63 64  1  0  0  0  0
 64 65  1  0  0  0  0
 67 68  4  0  0  0  0
 67 72  4  0  0  0  0
 68 69  4  0  0  0  0
 69 70  4  0  0  0  0
 70 71  4  0  0  0  0
 71 72  4  0  0  0  0
M  END
$$$$
