mol_ETKDG3_190
  PyMOL3.1          3D                             0

 73 79  0  0  0  0  0  0  0  0999 V2000
    4.9620    6.2639   -2.9668 C   0  0  0  0  0  0  0  0  0  0  0  0
    3.6427    5.6344   -3.1799 C   0  0  0  0  0  0  0  0  0  0  0  0
    2.6352    6.5189   -3.6400 O   0  0  0  0  0  0  0  0  0  0  0  0
    2.1245    7.4450   -2.7178 C   0  0  0  0  0  0  0  0  0  0  0  0
    3.6986    4.5072   -4.1345 C   0  0  0  0  0  0  0  0  0  0  0  0
    3.7746    4.7924   -5.4191 N   0  0  0  0  0  0  0  0  0  0  0  0
    3.8803    3.8230   -6.3489 C   0  0  0  0  0  0  0  0  0  0  0  0
    3.9254    2.4746   -5.9970 C   0  0  0  0  0  0  0  0  0  0  0  0
    3.8563    2.1462   -4.6430 C   0  0  0  0  0  0  0  0  0  0  0  0
    3.7211    3.1816   -3.7147 C   0  0  0  0  0  0  0  0  0  0  0  0
    3.6030    2.8161   -2.3284 C   0  0  0  0  0  0  0  0  0  0  0  0
    4.6689    2.6452   -1.5160 N   0  0  0  0  0  0  0  0  0  0  0  0
    6.1226    2.8441   -1.8435 C   0  0  0  0  0  0  0  0  0  0  0  0
    6.8854    1.6131   -1.9745 C   0  0  0  0  0  0  0  0  0  0  0  0
    2.3848    2.6550   -1.6121 C   0  0  0  0  0  0  0  0  0  0  0  0
    0.9518    2.8775   -2.0050 C   0  0  0  0  0  0  0  0  0  0  0  0
    0.1332    1.6851   -2.6523 C   0  0  0  0  0  0  0  0  0  0  0  0
    0.4976    1.4776   -4.1106 C   0  0  0  0  0  0  0  0  0  0  0  0
   -1.2949    2.1073   -2.6860 C   0  0  0  0  0  0  0  0  0  0  0  0
    0.2393    0.3577   -1.9067 C   0  0  0  0  0  0  0  0  0  0  0  0
   -0.8302    0.1226   -0.8390 O   0  0  0  0  0  0  0  0  0  0  0  0
   -1.4491   -1.1403   -0.5693 C   0  0  0  0  0  0  0  0  0  0  0  0
   -2.4911   -1.2478    0.5417 C   0  0  0  0  0  0  0  0  0  0  0  0
   -2.9901    0.0482    0.8854 N   0  0  0  0  0  0  0  0  0  0  0  0
   -3.9952    0.1332    1.8463 N   0  0  0  0  0  0  0  0  0  0  0  0
   -3.8515    0.9262    2.9468 C   0  0  0  0  0  0  0  0  0  0  0  0
   -2.5697    1.6800    3.1117 C   0  0  0  0  0  0  0  0  0  0  0  0
   -2.7548    3.0069    3.6571 N   0  0  0  0  0  0  0  0  0  0  0  0
   -2.6661    4.1225    2.9144 C   0  0  0  0  0  0  0  0  0  0  0  0
   -2.6764    5.4154    3.6683 C   0  0  0  0  0  0  0  0  0  0  0  0
   -4.0192    6.1992    3.5759 C   0  0  0  0  0  0  0  0  0  0  0  0
   -5.1824    5.4328    3.1369 C   0  0  0  0  0  0  0  0  0  0  0  0
   -4.2591    7.0637    4.7799 C   0  0  0  0  0  0  0  0  0  0  0  0
   -1.5508    6.2053    3.1360 N   0  0  0  0  0  0  0  0  0  0  0  0
   -0.2781    5.9242    3.5796 C   0  0  0  0  0  0  0  0  0  0  0  0
    0.9793    6.5757    3.0570 C   0  0  0  0  0  0  0  0  0  0  0  0
    1.2915    5.9220    1.7308 C   0  0  0  0  0  0  0  0  0  0  0  0
    2.5153    6.5068    1.1156 C   0  0  0  0  0  0  0  0  0  0  0  0
    3.6356    6.3838    2.0596 N   0  0  0  0  0  0  0  0  0  0  0  0
    4.8052    5.7919    1.6571 C   0  0  0  0  0  0  0  0  0  0  0  0
    5.7681    5.3422    2.5564 C   0  0  0  0  0  0  0  0  0  0  0  0
    6.6651    4.9268    3.1661 C   0  0  0  0  0  0  0  0  0  0  0  0
    7.6696    4.4110    4.0121 C   0  0  0  0  0  0  0  0  0  0  0  0
    8.6768    3.7797    3.2320 N   0  0  0  0  0  0  0  0  0  0  0  0
    9.4511    4.5524    2.3421 C   0  0  0  0  0  0  0  0  0  0  0  0
    8.8953    2.4043    3.2378 C   0  0  0  0  0  0  0  0  0  0  0  0
    7.0468    3.4665    5.0012 C   0  0  0  0  0  0  0  0  0  0  0  0
    8.2875    5.5404    4.8253 C   0  0  0  0  0  0  0  0  0  0  0  0
    5.0165    5.6097    0.4621 O   0  0  0  0  0  0  0  0  0  0  0  0
    3.4220    6.8949    3.3853 C   0  0  0  0  0  0  0  0  0  0  0  0
    2.1772    6.3786    3.9996 C   0  0  0  0  0  0  0  0  0  0  0  0
   -0.1591    5.0455    4.4512 O   0  0  0  0  0  0  0  0  0  0  0  0
   -1.8087    7.1738    2.0636 C   0  0  0  0  0  0  0  0  0  0  0  0
   -2.4531    4.0634    1.7209 O   0  0  0  0  0  0  0  0  0  0  0  0
   -1.6123    0.8529    4.0463 C   0  0  0  0  0  0  0  0  0  0  0  0
   -0.1990    1.4442    4.2406 C   0  0  0  0  0  0  0  0  0  0  0  0
    0.5891    1.1400    3.0141 C   0  0  0  0  0  0  0  0  0  0  0  0
    1.9689    1.5250    3.1545 N   0  0  0  0  0  0  0  0  0  0  0  0
    2.6260    1.0065    4.3659 C   0  0  0  0  0  0  0  0  0  0  0  0
    1.7550    1.2358    5.6002 C   0  0  0  0  0  0  0  0  0  0  0  0
    0.3870    0.7655    5.3776 O   0  0  0  0  0  0  0  0  0  0  0  0
   -4.7126    0.9871    3.8325 O   0  0  0  0  0  0  0  0  0  0  0  0
   -5.2090   -0.6236    1.5671 C   0  0  0  0  0  0  0  0  0  0  0  0
   -4.8251   -2.0673    1.1901 C   0  0  0  0  0  0  0  0  0  0  0  0
   -3.7121   -2.1347    0.1452 C   0  0  0  0  0  0  0  0  0  0  0  0
   -1.1801   -2.1753   -1.1965 O   0  0  0  0  0  0  0  0  0  0  0  0
    2.8119    2.3174   -0.3226 C   0  0  0  0  0  0  0  0  0  0  0  0
    4.2051    2.3298   -0.3003 C   0  0  0  0  0  0  0  0  0  0  0  0
    4.8887    2.0506    0.9205 C   0  0  0  0  0  0  0  0  0  0  0  0
    4.1088    1.7979    2.0460 C   0  0  0  0  0  0  0  0  0  0  0  0
    2.7140    1.7891    2.0015 C   0  0  0  0  0  0  0  0  0  0  0  0
    2.0457    2.0609    0.8004 C   0  0  0  0  0  0  0  0  0  0  0  0
    0.8151    7.9365    2.9469 F   0  0  0  0  0  0  0  0  0  0  0  0
  1  2  1  0  0  0  0
  2  3  1  0  0  0  0
  2  5  1  0  0  0  0
  3  4  1  0  0  0  0
  5  6  4  0  0  0  0
  5 10  4  0  0  0  0
  6  7  4  0  0  0  0
  7  8  4  0  0  0  0
  8  9  4  0  0  0  0
  9 10  4  0  0  0  0
 10 11  1  0  0  0  0
 11 12  4  0  0  0  0
 11 15  4  0  0  0  0
 12 13  1  0  0  0  0
 12 68  4  0  0  0  0
 13 14  1  0  0  0  0
 15 16  1  0  0  0  0
 15 67  4  0  0  0  0
 16 17  1  0  0  0  0
 17 18  1  0  0  0  0
 17 19  1  0  0  0  0
 17 20  1  0  0  0  0
 20 21  1  0  0  0  0
 21 22  1  0  0  0  0
 22 23  1  0  0  0  0
 22 66  2  0  0  0  0
 23 24  1  0  0  0  0
 23 65  1  0  0  0  0
 24 25  1  0  0  0  0
 25 26  1  0  0  0  0
 25 63  1  0  0  0  0
 26 27  1  0  0  0  0
 26 62  2  0  0  0  0
 27 28  1  0  0  0  0
 27 55  1  0  0  0  0
 28 29  1  0  0  0  0
 29 30  1  0  0  0  0
 29 54  2  0  0  0  0
 30 31  1  0  0  0  0
 30 34  1  0  0  0  0
 31 32  1  0  0  0  0
 31 33  1  0  0  0  0
 34 35  1  0  0  0  0
 34 53  1  0  0  0  0
 35 36  1  0  0  0  0
 35 52  2  0  0  0  0
 36 37  1  0  0  0  0
 36 51  1  0  0  0  0
 36 73  1  0  0  0  0
 37 38  1  0  0  0  0
 38 39  1  0  0  0  0
 39 40  1  0  0  0  0
 39 50  1  0  0  0  0
 40 41  1  0  0  0  0
 40 49  2  0  0  0  0
 41 42  1  0  0  0  0
 42 43  1  0  0  0  0
 43 44  1  0  0  0  0
 43 47  1  0  0  0  0
 43 48  1  0  0  0  0
 44 45  1  0  0  0  0
 44 46  1  0  0  0  0
 50 51  1  0  0  0  0
 55 56  1  0  0  0  0
 56 57  1  0  0  0  0
 56 61  1  0  0  0  0
 57 58  1  0  0  0  0
 58 59  1  0  0  0  0
 58 71  1  0  0  0  0
 59 60  1  0  0  0  0
 60 61  1  0  0  0  0
 63 64  1  0  0  0  0
 64 65  1  0  0  0  0
 67 68  4  0  0  0  0
 67 72  4  0  0  0  0
 68 69  4  0  0  0  0
 69 70  4  0  0  0  0
 70 71  4  0  0  0  0
 71 72  4  0  0  0  0
M  END
$$$$
