mol_ETKDG1_71
  PyMOL3.1          3D                             0

 73 79  0  0  0  0  0  0  0  0999 V2000
   -2.2667    4.9541    1.0240 C   0  0  0  0  0  0  0  0  0  0  0  0
   -1.2905    4.0442    1.6568 C   0  0  0  0  0  0  0  0  0  0  0  0
    0.0569    4.2167    1.2474 O   0  0  0  0  0  0  0  0  0  0  0  0
    0.4143    3.6823   -0.0131 C   0  0  0  0  0  0  0  0  0  0  0  0
   -1.3133    4.1266    3.1365 C   0  0  0  0  0  0  0  0  0  0  0  0
   -0.6687    5.1204    3.7271 N   0  0  0  0  0  0  0  0  0  0  0  0
   -0.7017    5.2789    5.0705 C   0  0  0  0  0  0  0  0  0  0  0  0
   -1.4278    4.4072    5.8921 C   0  0  0  0  0  0  0  0  0  0  0  0
   -2.1286    3.3532    5.2808 C   0  0  0  0  0  0  0  0  0  0  0  0
   -2.0390    3.2069    3.8890 C   0  0  0  0  0  0  0  0  0  0  0  0
   -2.7069    2.0954    3.2550 C   0  0  0  0  0  0  0  0  0  0  0  0
   -4.0384    2.0713    2.9713 N   0  0  0  0  0  0  0  0  0  0  0  0
   -5.0455    3.1564    3.2218 C   0  0  0  0  0  0  0  0  0  0  0  0
   -5.9656    2.8712    4.3123 C   0  0  0  0  0  0  0  0  0  0  0  0
   -2.0619    0.9389    2.7409 C   0  0  0  0  0  0  0  0  0  0  0  0
   -0.5949    0.5520    2.6976 C   0  0  0  0  0  0  0  0  0  0  0  0
   -0.0282   -0.1880    3.9855 C   0  0  0  0  0  0  0  0  0  0  0  0
    1.4765   -0.3596    3.8080 C   0  0  0  0  0  0  0  0  0  0  0  0
   -0.1626    0.6203    5.2175 C   0  0  0  0  0  0  0  0  0  0  0  0
   -0.6683   -1.5378    4.1981 C   0  0  0  0  0  0  0  0  0  0  0  0
   -0.1161   -2.6606    3.3715 O   0  0  0  0  0  0  0  0  0  0  0  0
   -0.0115   -4.0125    3.8088 C   0  0  0  0  0  0  0  0  0  0  0  0
    0.5458   -5.0425    2.8489 C   0  0  0  0  0  0  0  0  0  0  0  0
    0.9720   -4.4044    1.6392 N   0  0  0  0  0  0  0  0  0  0  0  0
    1.5469   -5.1993    0.6574 N   0  0  0  0  0  0  0  0  0  0  0  0
    1.0733   -5.1837   -0.6237 C   0  0  0  0  0  0  0  0  0  0  0  0
   -0.0824   -4.2795   -0.9452 C   0  0  0  0  0  0  0  0  0  0  0  0
    0.0500   -3.6789   -2.2570 N   0  0  0  0  0  0  0  0  0  0  0  0
    0.4340   -2.3996   -2.4599 C   0  0  0  0  0  0  0  0  0  0  0  0
    0.3566   -1.9098   -3.8764 C   0  0  0  0  0  0  0  0  0  0  0  0
    1.7350   -1.7521   -4.5914 C   0  0  0  0  0  0  0  0  0  0  0  0
    2.9134   -2.2291   -3.8651 C   0  0  0  0  0  0  0  0  0  0  0  0
    1.6768   -2.1790   -6.0370 C   0  0  0  0  0  0  0  0  0  0  0  0
   -0.3807   -0.6352   -3.8372 N   0  0  0  0  0  0  0  0  0  0  0  0
   -1.7605   -0.6719   -3.7721 C   0  0  0  0  0  0  0  0  0  0  0  0
   -2.6627    0.5355   -3.6493 C   0  0  0  0  0  0  0  0  0  0  0  0
   -2.6097    0.9986   -2.2117 C   0  0  0  0  0  0  0  0  0  0  0  0
   -3.4906    2.1866   -1.9940 C   0  0  0  0  0  0  0  0  0  0  0  0
   -4.8683    1.8524   -2.3753 N   0  0  0  0  0  0  0  0  0  0  0  0
   -5.8943    2.0626   -1.4774 C   0  0  0  0  0  0  0  0  0  0  0  0
   -7.0833    1.3170   -1.4254 C   0  0  0  0  0  0  0  0  0  0  0  0
   -8.1321    0.8005   -1.2331 C   0  0  0  0  0  0  0  0  0  0  0  0
   -9.3375    0.0676   -1.1027 C   0  0  0  0  0  0  0  0  0  0  0  0
  -10.4559    0.8385   -1.5269 N   0  0  0  0  0  0  0  0  0  0  0  0
  -10.6589    1.0971   -2.8961 C   0  0  0  0  0  0  0  0  0  0  0  0
  -11.3994    1.3803   -0.6370 C   0  0  0  0  0  0  0  0  0  0  0  0
   -9.5064   -0.3636    0.3381 C   0  0  0  0  0  0  0  0  0  0  0  0
   -9.2712   -1.2151   -1.9229 C   0  0  0  0  0  0  0  0  0  0  0  0
   -5.7488    2.9261   -0.6137 O   0  0  0  0  0  0  0  0  0  0  0  0
   -5.0420    1.3211   -3.7038 C   0  0  0  0  0  0  0  0  0  0  0  0
   -4.1262    0.2022   -4.0056 C   0  0  0  0  0  0  0  0  0  0  0  0
   -2.2984   -1.7957   -3.7778 O   0  0  0  0  0  0  0  0  0  0  0  0
    0.3727    0.6261   -3.7502 C   0  0  0  0  0  0  0  0  0  0  0  0
    0.6891   -1.6669   -1.5198 O   0  0  0  0  0  0  0  0  0  0  0  0
   -1.4388   -5.0930   -0.8605 C   0  0  0  0  0  0  0  0  0  0  0  0
   -2.7238   -4.2351   -1.0583 C   0  0  0  0  0  0  0  0  0  0  0  0
   -2.9467   -3.4719    0.1994 C   0  0  0  0  0  0  0  0  0  0  0  0
   -4.1667   -2.7016    0.1779 N   0  0  0  0  0  0  0  0  0  0  0  0
   -5.3685   -3.4403   -0.2109 C   0  0  0  0  0  0  0  0  0  0  0  0
   -5.0953   -4.3421   -1.4276 C   0  0  0  0  0  0  0  0  0  0  0  0
   -3.8550   -5.1245   -1.2718 O   0  0  0  0  0  0  0  0  0  0  0  0
    1.5462   -5.9179   -1.5036 O   0  0  0  0  0  0  0  0  0  0  0  0
    2.7162   -5.9781    1.0721 C   0  0  0  0  0  0  0  0  0  0  0  0
    2.3901   -6.7389    2.3805 C   0  0  0  0  0  0  0  0  0  0  0  0
    1.7502   -5.8313    3.4425 C   0  0  0  0  0  0  0  0  0  0  0  0
   -0.3409   -4.4160    4.9436 O   0  0  0  0  0  0  0  0  0  0  0  0
   -3.1156    0.2046    2.1622 C   0  0  0  0  0  0  0  0  0  0  0  0
   -4.3035    0.9212    2.3310 C   0  0  0  0  0  0  0  0  0  0  0  0
   -5.5222    0.3844    1.8023 C   0  0  0  0  0  0  0  0  0  0  0  0
   -5.4425   -0.8234    1.0899 C   0  0  0  0  0  0  0  0  0  0  0  0
   -4.2357   -1.5092    0.9111 C   0  0  0  0  0  0  0  0  0  0  0  0
   -3.0538   -0.9927    1.4619 C   0  0  0  0  0  0  0  0  0  0  0  0
   -2.2688    1.5384   -4.5264 F   0  0  0  0  0  0  0  0  0  0  0  0
  1  2  1  0  0  0  0
  2  3  1  0  0  0  0
  2  5  1  0  0  0  0
  3  4  1  0  0  0  0
  5  6  4  0  0  0  0
  5 10  4  0  0  0  0
  6  7  4  0  0  0  0
  7  8  4  0  0  0  0
  8  9  4  0  0  0  0
  9 10  4  0  0  0  0
 10 11  1  0  0  0  0
 11 12  4  0  0  0  0
 11 15  4  0  0  0  0
 12 13  1  0  0  0  0
 12 68  4  0  0  0  0
 13 14  1  0  0  0  0
 15 16  1  0  0  0  0
 15 67  4  0  0  0  0
 16 17  1  0  0  0  0
 17 18  1  0  0  0  0
 17 19  1  0  0  0  0
 17 20  1  0  0  0  0
 20 21  1  0  0  0  0
 21 22  1  0  0  0  0
 22 23  1  0  0  0  0
 22 66  2  0  0  0  0
 23 24  1  0  0  0  0
 23 65  1  0  0  0  0
 24 25  1  0  0  0  0
 25 26  1  0  0  0  0
 25 63  1  0  0  0  0
 26 27  1  0  0  0  0
 26 62  2  0  0  0  0
 27 28  1  0  0  0  0
 27 55  1  0  0  0  0
 28 29  1  0  0  0  0
 29 30  1  0  0  0  0
 29 54  2  0  0  0  0
 30 31  1  0  0  0  0
 30 34  1  0  0  0  0
 31 32  1  0  0  0  0
 31 33  1  0  0  0  0
 34 35  1  0  0  0  0
 34 53  1  0  0  0  0
 35 36  1  0  0  0  0
 35 52  2  0  0  0  0
 36 37  1  0  0  0  0
 36 51  1  0  0  0  0
 36 73  1  0  0  0  0
 37 38  1  0  0  0  0
 38 39  1  0  0  0  0
 39 40  1  0  0  0  0
 39 50  1  0  0  0  0
 40 41  1  0  0  0  0
 40 49  2  0  0  0  0
 41 42  1  0  0  0  0
 42 43  1  0  0  0  0
 43 44  1  0  0  0  0
 43 47  1  0  0  0  0
 43 48  1  0  0  0  0
 44 45  1  0  0  0  0
 44 46  1  0  0  0  0
 50 51  1  0  0  0  0
 55 56  1  0  0  0  0
 56 57  1  0  0  0  0
 56 61  1  0  0  0  0
 57 58  1  0  0  0  0
 58 59  1  0  0  0  0
 58 71  1  0  0  0  0
 59 60  1  0  0  0  0
 60 61  1  0  0  0  0
 63 64  1  0  0  0  0
 64 65  1  0  0  0  0
 67 68  4  0  0  0  0
 67 72  4  0  0  0  0
 68 69  4  0  0  0  0
 69 70  4  0  0  0  0
 70 71  4  0  0  0  0
 71 72  4  0  0  0  0
M  END
$$$$
