mol_bioactive_37
  PyMOL3.1          3D                             0

 73 79  0  0  0  0  0  0  0  0999 V2000
    4.1058    2.3623   -6.1308 C   0  0  0  0  0  0  0  0  0  0  0  0
    5.2156    2.5204   -5.1833 C   0  0  0  0  0  0  0  0  0  0  0  0
    5.4164    1.4304   -4.2842 O   0  0  0  0  0  0  0  0  0  0  0  0
    5.4697    0.1058   -4.7155 C   0  0  0  0  0  0  0  0  0  0  0  0
    5.1894    3.6718   -4.2899 C   0  0  0  0  0  0  0  0  0  0  0  0
    6.3739    4.2253   -4.4999 N   0  0  0  0  0  0  0  0  0  0  0  0
    6.7210    5.3786   -3.9655 C   0  0  0  0  0  0  0  0  0  0  0  0
    5.8489    6.0877   -3.1711 C   0  0  0  0  0  0  0  0  0  0  0  0
    4.5774    5.5488   -2.9161 C   0  0  0  0  0  0  0  0  0  0  0  0
    4.2478    4.3121   -3.4734 C   0  0  0  0  0  0  0  0  0  0  0  0
    2.9445    3.7518   -3.1529 C   0  0  0  0  0  0  0  0  0  0  0  0
    1.8124    4.0972   -3.8081 N   0  0  0  0  0  0  0  0  0  0  0  0
    1.6910    5.0401   -4.9710 C   0  0  0  0  0  0  0  0  0  0  0  0
    1.1495    6.3505   -4.6298 C   0  0  0  0  0  0  0  0  0  0  0  0
    2.6560    2.7600   -2.1633 C   0  0  0  0  0  0  0  0  0  0  0  0
    3.5586    1.9816   -1.2438 C   0  0  0  0  0  0  0  0  0  0  0  0
    3.7923    2.5866    0.2020 C   0  0  0  0  0  0  0  0  0  0  0  0
    4.3732    3.9861    0.1587 C   0  0  0  0  0  0  0  0  0  0  0  0
    4.8385    1.7478    0.8838 C   0  0  0  0  0  0  0  0  0  0  0  0
    2.4766    2.6143    1.0043 C   0  0  0  0  0  0  0  0  0  0  0  0
    2.0862    1.2992    1.6736 O   0  0  0  0  0  0  0  0  0  0  0  0
    2.0205    1.1019    3.0981 C   0  0  0  0  0  0  0  0  0  0  0  0
    1.4663   -0.2046    3.6539 C   0  0  0  0  0  0  0  0  0  0  0  0
    1.6274   -1.2836    2.7195 N   0  0  0  0  0  0  0  0  0  0  0  0
    1.2225   -2.5646    3.1197 N   0  0  0  0  0  0  0  0  0  0  0  0
    0.3539   -3.3103    2.3706 C   0  0  0  0  0  0  0  0  0  0  0  0
   -0.1817   -2.7420    1.0889 C   0  0  0  0  0  0  0  0  0  0  0  0
   -0.3306   -3.7886    0.0818 N   0  0  0  0  0  0  0  0  0  0  0  0
    0.5573   -4.0494   -0.8810 C   0  0  0  0  0  0  0  0  0  0  0  0
    0.1497   -5.0496   -1.9198 C   0  0  0  0  0  0  0  0  0  0  0  0
    0.8245   -6.4555   -1.8116 C   0  0  0  0  0  0  0  0  0  0  0  0
    0.1412   -7.4993   -2.6458 C   0  0  0  0  0  0  0  0  0  0  0  0
    1.0714   -6.9028   -0.4045 C   0  0  0  0  0  0  0  0  0  0  0  0
    0.3934   -4.3980   -3.2016 N   0  0  0  0  0  0  0  0  0  0  0  0
   -0.5593   -3.5400   -3.6773 C   0  0  0  0  0  0  0  0  0  0  0  0
   -0.4160   -2.7116   -4.9274 C   0  0  0  0  0  0  0  0  0  0  0  0
    0.3644   -1.4722   -4.5354 C   0  0  0  0  0  0  0  0  0  0  0  0
    0.5654   -0.5640   -5.7172 C   0  0  0  0  0  0  0  0  0  0  0  0
   -0.7553   -0.2628   -6.2916 N   0  0  0  0  0  0  0  0  0  0  0  0
   -1.2002    1.0215   -6.4292 C   0  0  0  0  0  0  0  0  0  0  0  0
   -2.5526    1.2874   -6.3519 C   0  0  0  0  0  0  0  0  0  0  0  0
   -3.6646    1.5642   -6.3324 C   0  0  0  0  0  0  0  0  0  0  0  0
   -5.0912    1.5764   -6.2759 C   0  0  0  0  0  0  0  0  0  0  0  0
   -5.6083    1.4709   -7.6181 N   0  0  0  0  0  0  0  0  0  0  0  0
   -5.8559    2.6251   -8.3754 C   0  0  0  0  0  0  0  0  0  0  0  0
   -5.5368    0.2321   -8.3037 C   0  0  0  0  0  0  0  0  0  0  0  0
   -5.5684    2.8207   -5.5804 C   0  0  0  0  0  0  0  0  0  0  0  0
   -5.5865    0.4006   -5.4336 C   0  0  0  0  0  0  0  0  0  0  0  0
   -0.4145    1.9452   -6.5621 O   0  0  0  0  0  0  0  0  0  0  0  0
   -1.5722   -1.3826   -6.6620 C   0  0  0  0  0  0  0  0  0  0  0  0
   -1.7728   -2.3045   -5.5190 C   0  0  0  0  0  0  0  0  0  0  0  0
   -1.6078   -3.4183   -3.0120 O   0  0  0  0  0  0  0  0  0  0  0  0
    1.7001   -4.5830   -3.8489 C   0  0  0  0  0  0  0  0  0  0  0  0
    1.5734   -3.3786   -0.9609 O   0  0  0  0  0  0  0  0  0  0  0  0
   -1.5813   -2.0672    1.3874 C   0  0  0  0  0  0  0  0  0  0  0  0
   -2.1864   -0.8948    0.5587 C   0  0  0  0  0  0  0  0  0  0  0  0
   -1.2174   -0.1776   -0.2638 C   0  0  0  0  0  0  0  0  0  0  0  0
   -1.7626    0.7517   -1.2193 N   0  0  0  0  0  0  0  0  0  0  0  0
   -3.1709    0.7916   -1.4466 C   0  0  0  0  0  0  0  0  0  0  0  0
   -3.9733   -0.3492   -0.9463 C   0  0  0  0  0  0  0  0  0  0  0  0
   -3.2998   -1.3935   -0.2083 O   0  0  0  0  0  0  0  0  0  0  0  0
   -0.0467   -4.4244    2.7485 O   0  0  0  0  0  0  0  0  0  0  0  0
    1.8334   -3.0648    4.3483 C   0  0  0  0  0  0  0  0  0  0  0  0
    1.7047   -2.0047    5.4552 C   0  0  0  0  0  0  0  0  0  0  0  0
    2.1507   -0.6203    4.9943 C   0  0  0  0  0  0  0  0  0  0  0  0
    2.4067    1.9564    3.9194 O   0  0  0  0  0  0  0  0  0  0  0  0
    1.2708    2.5669   -2.2693 C   0  0  0  0  0  0  0  0  0  0  0  0
    0.7897    3.4039   -3.2771 C   0  0  0  0  0  0  0  0  0  0  0  0
   -0.6007    3.3780   -3.5975 C   0  0  0  0  0  0  0  0  0  0  0  0
   -1.4060    2.4858   -2.8928 C   0  0  0  0  0  0  0  0  0  0  0  0
   -0.9131    1.6404   -1.8938 C   0  0  0  0  0  0  0  0  0  0  0  0
    0.4490    1.6786   -1.5659 C   0  0  0  0  0  0  0  0  0  0  0  0
    0.2206   -3.4188   -5.9278 F   0  0  0  0  0  0  0  0  0  0  0  0
  1  2  1  0  0  0  0
  2  3  1  0  0  0  0
  2  5  1  0  0  0  0
  3  4  1  0  0  0  0
  5  6  4  0  0  0  0
  5 10  4  0  0  0  0
  6  7  4  0  0  0  0
  7  8  4  0  0  0  0
  8  9  4  0  0  0  0
  9 10  4  0  0  0  0
 10 11  1  0  0  0  0
 11 12  4  0  0  0  0
 11 15  4  0  0  0  0
 12 13  1  0  0  0  0
 12 68  4  0  0  0  0
 13 14  1  0  0  0  0
 15 16  1  0  0  0  0
 15 67  4  0  0  0  0
 16 17  1  0  0  0  0
 17 18  1  0  0  0  0
 17 19  1  0  0  0  0
 17 20  1  0  0  0  0
 20 21  1  0  0  0  0
 21 22  1  0  0  0  0
 22 23  1  0  0  0  0
 22 66  2  0  0  0  0
 23 24  1  0  0  0  0
 23 65  1  0  0  0  0
 24 25  1  0  0  0  0
 25 26  1  0  0  0  0
 25 63  1  0  0  0  0
 26 27  1  0  0  0  0
 26 62  2  0  0  0  0
 27 28  1  0  0  0  0
 27 55  1  0  0  0  0
 28 29  1  0  0  0  0
 29 30  1  0  0  0  0
 29 54  2  0  0  0  0
 30 31  1  0  0  0  0
 30 34  1  0  0  0  0
 31 32  1  0  0  0  0
 31 33  1  0  0  0  0
 34 35  1  0  0  0  0
 34 53  1  0  0  0  0
 35 36  1  0  0  0  0
 35 52  2  0  0  0  0
 36 37  1  0  0  0  0
 36 51  1  0  0  0  0
 36 73  1  0  0  0  0
 37 38  1  0  0  0  0
 38 39  1  0  0  0  0
 39 40  1  0  0  0  0
 39 50  1  0  0  0  0
 40 41  1  0  0  0  0
 40 49  2  0  0  0  0
 41 42  1  0  0  0  0
 42 43  1  0  0  0  0
 43 44  1  0  0  0  0
 43 47  1  0  0  0  0
 43 48  1  0  0  0  0
 44 45  1  0  0  0  0
 44 46  1  0  0  0  0
 50 51  1  0  0  0  0
 55 56  1  0  0  0  0
 56 57  1  0  0  0  0
 56 61  1  0  0  0  0
 57 58  1  0  0  0  0
 58 59  1  0  0  0  0
 58 71  1  0  0  0  0
 59 60  1  0  0  0  0
 60 61  1  0  0  0  0
 63 64  1  0  0  0  0
 64 65  1  0  0  0  0
 67 68  4  0  0  0  0
 67 72  4  0  0  0  0
 68 69  4  0  0  0  0
 69 70  4  0  0  0  0
 70 71  4  0  0  0  0
 71 72  4  0  0  0  0
M  END
$$$$
