mol_ETKDG4_202
  PyMOL3.1          3D                             0

 73 79  0  0  0  0  0  0  0  0999 V2000
   -3.4415   -2.3778   -2.2082 C   0  0  0  0  0  0  0  0  0  0  0  0
   -2.3167   -3.3158   -2.3931 C   0  0  0  0  0  0  0  0  0  0  0  0
   -1.9195   -4.0218   -1.2326 O   0  0  0  0  0  0  0  0  0  0  0  0
   -1.2108   -3.3150   -0.2463 C   0  0  0  0  0  0  0  0  0  0  0  0
   -2.5534   -4.3084   -3.4554 C   0  0  0  0  0  0  0  0  0  0  0  0
   -3.1996   -5.4140   -3.1343 N   0  0  0  0  0  0  0  0  0  0  0  0
   -3.5050   -6.3453   -4.0628 C   0  0  0  0  0  0  0  0  0  0  0  0
   -3.1572   -6.1778   -5.4086 C   0  0  0  0  0  0  0  0  0  0  0  0
   -2.4836   -5.0040   -5.7740 C   0  0  0  0  0  0  0  0  0  0  0  0
   -2.1544   -4.0728   -4.7724 C   0  0  0  0  0  0  0  0  0  0  0  0
   -1.4097   -2.8850   -5.1299 C   0  0  0  0  0  0  0  0  0  0  0  0
   -1.9816   -1.7607   -5.6411 N   0  0  0  0  0  0  0  0  0  0  0  0
   -3.4419   -1.5276   -5.9267 C   0  0  0  0  0  0  0  0  0  0  0  0
   -3.7550   -1.4909   -7.3559 C   0  0  0  0  0  0  0  0  0  0  0  0
   -0.0149   -2.6822   -4.9191 C   0  0  0  0  0  0  0  0  0  0  0  0
    1.0369   -3.5907   -4.3172 C   0  0  0  0  0  0  0  0  0  0  0  0
    1.7704   -4.5398   -5.3653 C   0  0  0  0  0  0  0  0  0  0  0  0
    2.4779   -5.6385   -4.5690 C   0  0  0  0  0  0  0  0  0  0  0  0
    0.8192   -5.2345   -6.2506 C   0  0  0  0  0  0  0  0  0  0  0  0
    2.7379   -3.7727   -6.2590 C   0  0  0  0  0  0  0  0  0  0  0  0
    4.0576   -3.3635   -5.7123 O   0  0  0  0  0  0  0  0  0  0  0  0
    5.3190   -3.7064   -6.2847 C   0  0  0  0  0  0  0  0  0  0  0  0
    6.5640   -3.0583   -5.7102 C   0  0  0  0  0  0  0  0  0  0  0  0
    6.3180   -2.6467   -4.3716 N   0  0  0  0  0  0  0  0  0  0  0  0
    7.3711   -2.0804   -3.6581 N   0  0  0  0  0  0  0  0  0  0  0  0
    7.2388   -0.8732   -3.0483 C   0  0  0  0  0  0  0  0  0  0  0  0
    5.9230   -0.1599   -3.1314 C   0  0  0  0  0  0  0  0  0  0  0  0
    5.5558    0.3741   -1.8358 N   0  0  0  0  0  0  0  0  0  0  0  0
    4.6378   -0.2045   -1.0352 C   0  0  0  0  0  0  0  0  0  0  0  0
    4.3367    0.5023    0.2443 C   0  0  0  0  0  0  0  0  0  0  0  0
    4.9328   -0.1420    1.5309 C   0  0  0  0  0  0  0  0  0  0  0  0
    4.9627    0.8158    2.6765 C   0  0  0  0  0  0  0  0  0  0  0  0
    6.2183   -0.8551    1.3185 C   0  0  0  0  0  0  0  0  0  0  0  0
    2.8956    0.6229    0.3621 N   0  0  0  0  0  0  0  0  0  0  0  0
    2.2884    1.7069   -0.2085 C   0  0  0  0  0  0  0  0  0  0  0  0
    0.8240    2.0165   -0.1197 C   0  0  0  0  0  0  0  0  0  0  0  0
    0.2208    1.9739   -1.5057 C   0  0  0  0  0  0  0  0  0  0  0  0
   -1.2184    2.2205   -1.4346 C   0  0  0  0  0  0  0  0  0  0  0  0
   -1.4853    3.4557   -0.6908 N   0  0  0  0  0  0  0  0  0  0  0  0
   -2.3272    4.3635   -1.2067 C   0  0  0  0  0  0  0  0  0  0  0  0
   -2.4722    5.6111   -0.6158 C   0  0  0  0  0  0  0  0  0  0  0  0
   -2.6556    6.6770   -0.2128 C   0  0  0  0  0  0  0  0  0  0  0  0
   -2.6923    7.9470    0.4016 C   0  0  0  0  0  0  0  0  0  0  0  0
   -1.3995    8.5213    0.3334 N   0  0  0  0  0  0  0  0  0  0  0  0
   -0.5595    8.5942    1.4391 C   0  0  0  0  0  0  0  0  0  0  0  0
   -0.9420    9.0555   -0.8937 C   0  0  0  0  0  0  0  0  0  0  0  0
   -3.1631    7.8020    1.8525 C   0  0  0  0  0  0  0  0  0  0  0  0
   -3.6748    8.8610   -0.2907 C   0  0  0  0  0  0  0  0  0  0  0  0
   -2.9648    4.0792   -2.2213 O   0  0  0  0  0  0  0  0  0  0  0  0
   -0.8416    3.6405    0.5858 C   0  0  0  0  0  0  0  0  0  0  0  0
    0.5902    3.3664    0.5402 C   0  0  0  0  0  0  0  0  0  0  0  0
    3.0059    2.5066   -0.8450 O   0  0  0  0  0  0  0  0  0  0  0  0
    2.1555   -0.4642    1.0060 C   0  0  0  0  0  0  0  0  0  0  0  0
    4.0250   -1.1826   -1.4194 O   0  0  0  0  0  0  0  0  0  0  0  0
    5.9757    0.9721   -4.2261 C   0  0  0  0  0  0  0  0  0  0  0  0
    4.6341    1.7169   -4.4695 C   0  0  0  0  0  0  0  0  0  0  0  0
    3.7500    0.8277   -5.2782 C   0  0  0  0  0  0  0  0  0  0  0  0
    2.5105    1.4712   -5.6442 N   0  0  0  0  0  0  0  0  0  0  0  0
    2.6397    2.7872   -6.2617 C   0  0  0  0  0  0  0  0  0  0  0  0
    3.6784    3.6521   -5.5248 C   0  0  0  0  0  0  0  0  0  0  0  0
    4.9193    2.9117   -5.2452 O   0  0  0  0  0  0  0  0  0  0  0  0
    8.1822   -0.3399   -2.4464 O   0  0  0  0  0  0  0  0  0  0  0  0
    8.5795   -2.8971   -3.5545 C   0  0  0  0  0  0  0  0  0  0  0  0
    8.9826   -3.3875   -4.9572 C   0  0  0  0  0  0  0  0  0  0  0  0
    7.8076   -4.0011   -5.7197 C   0  0  0  0  0  0  0  0  0  0  0  0
    5.4701   -4.5306   -7.2149 O   0  0  0  0  0  0  0  0  0  0  0  0
    0.1992   -1.3605   -5.3572 C   0  0  0  0  0  0  0  0  0  0  0  0
   -1.0170   -0.8364   -5.7970 C   0  0  0  0  0  0  0  0  0  0  0  0
   -1.0584    0.5199   -6.2621 C   0  0  0  0  0  0  0  0  0  0  0  0
    0.1343    1.2573   -6.2205 C   0  0  0  0  0  0  0  0  0  0  0  0
    1.3378    0.7095   -5.7383 C   0  0  0  0  0  0  0  0  0  0  0  0
    1.3729   -0.6245   -5.3197 C   0  0  0  0  0  0  0  0  0  0  0  0
    0.1343    1.1314    0.6507 F   0  0  0  0  0  0  0  0  0  0  0  0
  1  2  1  0  0  0  0
  2  3  1  0  0  0  0
  2  5  1  0  0  0  0
  3  4  1  0  0  0  0
  5  6  4  0  0  0  0
  5 10  4  0  0  0  0
  6  7  4  0  0  0  0
  7  8  4  0  0  0  0
  8  9  4  0  0  0  0
  9 10  4  0  0  0  0
 10 11  1  0  0  0  0
 11 12  4  0  0  0  0
 11 15  4  0  0  0  0
 12 13  1  0  0  0  0
 12 68  4  0  0  0  0
 13 14  1  0  0  0  0
 15 16  1  0  0  0  0
 15 67  4  0  0  0  0
 16 17  1  0  0  0  0
 17 18  1  0  0  0  0
 17 19  1  0  0  0  0
 17 20  1  0  0  0  0
 20 21  1  0  0  0  0
 21 22  1  0  0  0  0
 22 23  1  0  0  0  0
 22 66  2  0  0  0  0
 23 24  1  0  0  0  0
 23 65  1  0  0  0  0
 24 25  1  0  0  0  0
 25 26  1  0  0  0  0
 25 63  1  0  0  0  0
 26 27  1  0  0  0  0
 26 62  2  0  0  0  0
 27 28  1  0  0  0  0
 27 55  1  0  0  0  0
 28 29  1  0  0  0  0
 29 30  1  0  0  0  0
 29 54  2  0  0  0  0
 30 31  1  0  0  0  0
 30 34  1  0  0  0  0
 31 32  1  0  0  0  0
 31 33  1  0  0  0  0
 34 35  1  0  0  0  0
 34 53  1  0  0  0  0
 35 36  1  0  0  0  0
 35 52  2  0  0  0  0
 36 37  1  0  0  0  0
 36 51  1  0  0  0  0
 36 73  1  0  0  0  0
 37 38  1  0  0  0  0
 38 39  1  0  0  0  0
 39 40  1  0  0  0  0
 39 50  1  0  0  0  0
 40 41  1  0  0  0  0
 40 49  2  0  0  0  0
 41 42  1  0  0  0  0
 42 43  1  0  0  0  0
 43 44  1  0  0  0  0
 43 47  1  0  0  0  0
 43 48  1  0  0  0  0
 44 45  1  0  0  0  0
 44 46  1  0  0  0  0
 50 51  1  0  0  0  0
 55 56  1  0  0  0  0
 56 57  1  0  0  0  0
 56 61  1  0  0  0  0
 57 58  1  0  0  0  0
 58 59  1  0  0  0  0
 58 71  1  0  0  0  0
 59 60  1  0  0  0  0
 60 61  1  0  0  0  0
 63 64  1  0  0  0  0
 64 65  1  0  0  0  0
 67 68  4  0  0  0  0
 67 72  4  0  0  0  0
 68 69  4  0  0  0  0
 69 70  4  0  0  0  0
 70 71  4  0  0  0  0
 71 72  4  0  0  0  0
M  END
$$$$
