obj02
  PyMOL3.1          3D                             0

 37 40  0  0  0  0  0  0  0  0999 V2000
  -16.8900   54.0022    6.6488 N   0  0  0  0  0  0  0  0  0  0  0  0
  -14.8071   54.8099    6.4137 O   0  0  0  0  0  0  0  0  0  0  0  0
  -16.9352   53.7203    8.0254 C   0  0  0  0  0  0  0  0  0  0  0  0
  -19.2983   53.4876    7.7189 N   0  0  0  0  0  0  0  0  0  0  0  0
  -17.2750   53.0123   12.1147 O   0  0  0  0  0  0  0  0  0  0  0  0
  -18.1890   53.4835    8.5794 C   0  0  0  0  0  0  0  0  0  0  0  0
  -22.4645   51.6532    7.2439 N   0  0  0  0  0  0  0  0  0  0  0  0
  -18.3048   53.2547    9.9396 C   0  0  0  0  0  0  0  0  0  0  0  0
  -14.8595   53.4098   11.0961 N   0  0  0  0  0  0  0  0  0  0  0  0
  -17.1988   53.2287   10.7677 C   0  0  0  0  0  0  0  0  0  0  0  0
  -12.6727   53.1876   11.8392 N   0  0  0  0  0  0  0  0  0  0  0  0
  -15.9293   53.4316   10.2227 C   0  0  0  0  0  0  0  0  0  0  0  0
  -13.2127   52.7520    9.5750 N   0  0  0  0  0  0  0  0  0  0  0  0
  -15.8175   53.6869    8.8393 C   0  0  0  0  0  0  0  0  0  0  0  0
  -10.5134   51.8042    6.0350 N   0  0  0  0  0  0  0  0  0  0  0  0
  -15.9056   54.5825    5.9469 C   0  0  0  0  0  0  0  0  0  0  0  0
  -16.2233   54.9400    4.5478 C   0  0  0  0  0  0  0  0  0  0  0  0
  -15.4900   56.0186    3.9498 C   0  0  0  0  0  0  0  0  0  0  0  0
  -20.0632   52.3136    7.4855 C   0  0  0  0  0  0  0  0  0  0  0  0
  -21.5116   52.5796    7.8939 C   0  0  0  0  0  0  0  0  0  0  0  0
  -23.5986   51.4506    8.1259 C   0  0  0  0  0  0  0  0  0  0  0  0
  -22.8592   52.1619    5.9317 C   0  0  0  0  0  0  0  0  0  0  0  0
  -18.5577   52.7505   12.6758 C   0  0  0  0  0  0  0  0  0  0  0  0
  -13.5602   53.1135   10.8169 C   0  0  0  0  0  0  0  0  0  0  0  0
  -11.3744   52.9252   11.5726 C   0  0  0  0  0  0  0  0  0  0  0  0
  -10.9540   52.5613   10.2902 C   0  0  0  0  0  0  0  0  0  0  0  0
  -11.9191   52.4735    9.2956 C   0  0  0  0  0  0  0  0  0  0  0  0
  -11.6183   52.1101    7.9153 C   0  0  0  0  0  0  0  0  0  0  0  0
  -10.3995   52.1639    7.3006 C   0  0  0  0  0  0  0  0  0  0  0  0
  -11.8246   51.4897    5.7653 C   0  0  0  0  0  0  0  0  0  0  0  0
  -12.4227   51.0644    4.5971 C   0  0  0  0  0  0  0  0  0  0  0  0
  -13.7905   50.8222    4.6118 C   0  0  0  0  0  0  0  0  0  0  0  0
  -14.5271   50.9903    5.7547 C   0  0  0  0  0  0  0  0  0  0  0  0
  -13.9225   51.4140    6.9314 C   0  0  0  0  0  0  0  0  0  0  0  0
  -12.5444   51.6703    6.9235 C   0  0  0  0  0  0  0  0  0  0  0  0
   -9.4138   51.7598    5.0826 C   0  0  0  0  0  0  0  0  0  0  0  0
  -19.9058   54.7793    7.4465 C   0  0  0  0  0  0  0  0  0  0  0  0
  1 16  1  0  0  0  0
  1  3  1  0  0  0  0
  3 14  4  0  0  0  0
  4  6  1  0  0  0  0
  4 37  1  0  0  0  0
  5 23  1  0  0  0  0
  3  6  4  0  0  0  0
  7 20  1  0  0  0  0
  7 21  1  0  0  0  0
  6  8  4  0  0  0  0
  8 10  4  0  0  0  0
  9 24  1  0  0  0  0
  5 10  1  0  0  0  0
 10 12  4  0  0  0  0
 11 25  4  0  0  0  0
  9 12  1  0  0  0  0
 13 27  4  0  0  0  0
 12 14  4  0  0  0  0
 15 29  4  0  0  0  0
 15 36  1  0  0  0  0
  2 16  2  0  0  0  0
 16 17  1  0  0  0  0
 17 18  1  0  0  0  0
  4 19  1  0  0  0  0
 19 20  1  0  0  0  0
  7 22  1  0  0  0  0
 11 24  4  0  0  0  0
 13 24  4  0  0  0  0
 25 26  4  0  0  0  0
 26 27  4  0  0  0  0
 27 28  1  0  0  0  0
 28 29  4  0  0  0  0
 28 35  4  0  0  0  0
 15 30  4  0  0  0  0
 30 31  4  0  0  0  0
 31 32  4  0  0  0  0
 32 33  4  0  0  0  0
 33 34  4  0  0  0  0
 30 35  4  0  0  0  0
 34 35  4  0  0  0  0
M  END
$$$$
