obj03
  PyMOL3.1          3D                             0

 37 40  0  0  0  0  0  0  0  0999 V2000
  -14.5198   55.8043    5.1234 C   0  0  0  0  0  0  0  0  0  0  0  0
  -15.0153   55.0161    6.1683 C   0  0  0  0  0  0  0  0  0  0  0  0
  -16.1068   54.0682    5.7486 C   0  0  0  0  0  0  0  0  0  0  0  0
  -16.3219   53.9639    4.5858 O   0  0  0  0  0  0  0  0  0  0  0  0
  -16.8363   53.3633    6.5636 N   0  0  0  0  0  0  0  0  0  0  0  0
  -16.9115   53.2357    7.9454 C   0  0  0  0  0  0  0  0  0  0  0  0
  -15.8091   53.3371    8.7878 C   0  0  0  0  0  0  0  0  0  0  0  0
  -15.9305   53.2030   10.1885 C   0  0  0  0  0  0  0  0  0  0  0  0
  -14.8893   53.2909   11.1067 N   0  0  0  0  0  0  0  0  0  0  0  0
  -13.5678   52.9758   10.9200 C   0  0  0  0  0  0  0  0  0  0  0  0
  -12.7320   53.1170   11.9640 N   0  0  0  0  0  0  0  0  0  0  0  0
  -11.4444   52.8304   11.7897 C   0  0  0  0  0  0  0  0  0  0  0  0
  -10.9898   52.3814   10.5789 C   0  0  0  0  0  0  0  0  0  0  0  0
  -11.8804   52.2283    9.5606 C   0  0  0  0  0  0  0  0  0  0  0  0
  -11.5010   51.7347    8.2390 C   0  0  0  0  0  0  0  0  0  0  0  0
  -12.3300   51.7054    7.1753 C   0  0  0  0  0  0  0  0  0  0  0  0
  -11.7125   51.2096    6.1135 N   0  0  0  0  0  0  0  0  0  0  0  0
  -12.3173   51.0451    4.8113 C   0  0  0  0  0  0  0  0  0  0  0  0
  -10.4567   50.8885    6.4561 C   0  0  0  0  0  0  0  0  0  0  0  0
   -9.4552   50.3436    5.6962 C   0  0  0  0  0  0  0  0  0  0  0  0
   -8.2386   50.1104    6.3041 C   0  0  0  0  0  0  0  0  0  0  0  0
   -8.0329   50.4039    7.6290 C   0  0  0  0  0  0  0  0  0  0  0  0
   -9.0639   50.9545    8.3815 C   0  0  0  0  0  0  0  0  0  0  0  0
  -10.2974   51.2013    7.7814 C   0  0  0  0  0  0  0  0  0  0  0  0
  -13.1710   52.5353    9.7374 N   0  0  0  0  0  0  0  0  0  0  0  0
  -17.2035   52.9845   10.7132 C   0  0  0  0  0  0  0  0  0  0  0  0
  -17.3124   52.9046   12.0654 O   0  0  0  0  0  0  0  0  0  0  0  0
  -18.5962   52.6277   12.5953 C   0  0  0  0  0  0  0  0  0  0  0  0
  -18.2777   52.8605    9.8743 C   0  0  0  0  0  0  0  0  0  0  0  0
  -18.1617   52.9702    8.5086 C   0  0  0  0  0  0  0  0  0  0  0  0
  -19.3058   52.8181    7.6837 N   0  0  0  0  0  0  0  0  0  0  0  0
  -19.5784   51.4416    7.2561 C   0  0  0  0  0  0  0  0  0  0  0  0
  -20.4507   53.6469    8.1314 C   0  0  0  0  0  0  0  0  0  0  0  0
  -20.4251   54.9008    7.3580 C   0  0  0  0  0  0  0  0  0  0  0  0
  -21.5592   55.7799    7.7800 N   0  0  0  0  0  0  0  0  0  0  0  0
  -22.6101   55.7217    6.7904 C   0  0  0  0  0  0  0  0  0  0  0  0
  -21.0746   57.1321    8.0342 C   0  0  0  0  0  0  0  0  0  0  0  0
  1  2  1  0  0  0  0
  2  3  1  0  0  0  0
  3  4  2  0  0  0  0
  3  5  1  0  0  0  0
  5  6  1  0  0  0  0
  6  7  4  0  0  0  0
  6 30  4  0  0  0  0
  7  8  4  0  0  0  0
  8  9  1  0  0  0  0
  8 26  4  0  0  0  0
  9 10  1  0  0  0  0
 10 11  4  0  0  0  0
 10 25  4  0  0  0  0
 11 12  4  0  0  0  0
 12 13  4  0  0  0  0
 13 14  4  0  0  0  0
 14 15  1  0  0  0  0
 14 25  4  0  0  0  0
 15 16  4  0  0  0  0
 15 24  4  0  0  0  0
 16 17  4  0  0  0  0
 17 18  1  0  0  0  0
 17 19  4  0  0  0  0
 19 20  4  0  0  0  0
 19 24  4  0  0  0  0
 20 21  4  0  0  0  0
 21 22  4  0  0  0  0
 22 23  4  0  0  0  0
 23 24  4  0  0  0  0
 26 27  1  0  0  0  0
 26 29  4  0  0  0  0
 27 28  1  0  0  0  0
 29 30  4  0  0  0  0
 30 31  1  0  0  0  0
 31 32  1  0  0  0  0
 31 33  1  0  0  0  0
 33 34  1  0  0  0  0
 34 35  1  0  0  0  0
 35 36  1  0  0  0  0
 35 37  1  0  0  0  0
M  END
$$$$
