obj01
  PyMOL3.1          3D                             0

 37 40  0  0  0  0  0  0  0  0999 V2000
  -17.2370   54.7320    6.6520 N   0  0  0  0  0  0  0  0  0  0  0  0
  -15.0100   55.1010    6.3600 O   0  0  0  0  0  0  0  0  0  0  0  0
  -17.2370   54.3450    8.0460 C   0  0  0  0  0  0  0  0  0  0  0  0
  -19.6810   54.2580    7.8410 N   0  0  0  0  0  0  0  0  0  0  0  0
  -17.5000   53.1560   11.9770 O   0  0  0  0  0  0  0  0  0  0  0  0
  -18.4680   54.0780    8.6080 C   0  0  0  0  0  0  0  0  0  0  0  0
  -21.0860   53.2350    5.3850 N   0  0  0  0  0  0  0  0  0  0  0  0
  -18.5700   53.6930    9.9220 C   0  0  0  0  0  0  0  0  0  0  0  0
  -15.0760   53.6080   11.0210 N   0  0  0  0  0  0  0  0  0  0  0  0
  -17.4240   53.5490   10.6580 C   0  0  0  0  0  0  0  0  0  0  0  0
  -12.8110   53.5320   11.6170 N   0  0  0  0  0  0  0  0  0  0  0  0
  -16.1910   53.7880   10.1090 C   0  0  0  0  0  0  0  0  0  0  0  0
  -13.3720   53.1510    9.4320 N   0  0  0  0  0  0  0  0  0  0  0  0
  -16.0750   54.1880    8.7890 C   0  0  0  0  0  0  0  0  0  0  0  0
  -10.5260   52.3790    5.9050 N   0  0  0  0  0  0  0  0  0  0  0  0
  -16.0740   55.0860    5.8770 C   0  0  0  0  0  0  0  0  0  0  0  0
  -16.2910   55.4210    4.4030 C   0  0  0  0  0  0  0  0  0  0  0  0
  -15.6910   56.7280    3.9080 C   0  0  0  0  0  0  0  0  0  0  0  0
  -20.7040   53.2420    7.7780 C   0  0  0  0  0  0  0  0  0  0  0  0
  -20.5720   52.4550    6.4870 C   0  0  0  0  0  0  0  0  0  0  0  0
  -20.0060   53.4690    4.4430 C   0  0  0  0  0  0  0  0  0  0  0  0
  -22.1230   52.4650    4.7330 C   0  0  0  0  0  0  0  0  0  0  0  0
  -18.7430   53.3430   12.5570 C   0  0  0  0  0  0  0  0  0  0  0  0
  -13.6960   53.4260   10.6630 C   0  0  0  0  0  0  0  0  0  0  0  0
  -11.5290   53.3730   11.3890 C   0  0  0  0  0  0  0  0  0  0  0  0
  -11.1400   53.0860   10.0990 C   0  0  0  0  0  0  0  0  0  0  0  0
  -12.1150   52.9730    9.1330 C   0  0  0  0  0  0  0  0  0  0  0  0
  -11.7270   52.6620    7.6930 C   0  0  0  0  0  0  0  0  0  0  0  0
  -10.4550   52.6840    7.1710 C   0  0  0  0  0  0  0  0  0  0  0  0
  -11.8040   52.1480    5.5580 C   0  0  0  0  0  0  0  0  0  0  0  0
  -12.3770   51.7930    4.3200 C   0  0  0  0  0  0  0  0  0  0  0  0
  -13.7400   51.6180    4.2210 C   0  0  0  0  0  0  0  0  0  0  0  0
  -14.5550   51.7880    5.3270 C   0  0  0  0  0  0  0  0  0  0  0  0
  -13.9920   52.1360    6.5380 C   0  0  0  0  0  0  0  0  0  0  0  0
  -12.6010   52.3190    6.6400 C   0  0  0  0  0  0  0  0  0  0  0  0
   -9.3930   52.2990    5.0180 C   0  0  0  0  0  0  0  0  0  0  0  0
  -19.8790   55.5200    7.1700 C   0  0  0  0  0  0  0  0  0  0  0  0
  1  3  1  0  0  0  0
  3  6  1  0  0  0  0
  4  6  1  0  0  0  0
  6  8  2  0  0  0  0
  5 10  1  0  0  0  0
  8 10  1  0  0  0  0
  9 12  1  0  0  0  0
 10 12  2  0  0  0  0
  3 14  2  0  0  0  0
 12 14  1  0  0  0  0
  1 16  1  0  0  0  0
  2 16  2  0  0  0  0
 16 17  1  0  0  0  0
 17 18  2  0  0  0  0
  4 19  1  0  0  0  0
  7 20  1  0  0  0  0
 19 20  1  0  0  0  0
  7 21  1  0  0  0  0
  7 22  1  0  0  0  0
  5 23  1  0  0  0  0
  9 24  1  0  0  0  0
 11 24  1  0  0  0  0
 13 24  2  0  0  0  0
 11 25  2  0  0  0  0
 25 26  1  0  0  0  0
 13 27  1  0  0  0  0
 26 27  2  0  0  0  0
 27 28  1  0  0  0  0
 15 29  1  0  0  0  0
 28 29  2  0  0  0  0
 15 30  1  0  0  0  0
 30 31  1  0  0  0  0
 31 32  2  0  0  0  0
 32 33  1  0  0  0  0
 33 34  2  0  0  0  0
 28 35  1  0  0  0  0
 30 35  2  0  0  0  0
 34 35  1  0  0  0  0
 15 36  1  0  0  0  0
  4 37  1  0  0  0  0
M  END
$$$$
