obj06
  PyMOL3.1          3D                             0

 37 40  0  0  0  0  0  0  0  0999 V2000
  -15.9117   56.1068    3.8414 C   0  0  0  0  0  0  0  0  0  0  0  0
  -15.8074   54.8648    4.4763 C   0  0  0  0  0  0  0  0  0  0  0  0
  -16.6437   54.6471    5.6784 C   0  0  0  0  0  0  0  0  0  0  0  0
  -17.5144   55.4228    5.9718 O   0  0  0  0  0  0  0  0  0  0  0  0
  -16.4164   53.5247    6.3548 N   0  0  0  0  0  0  0  0  0  0  0  0
  -16.6768   53.3204    7.7137 C   0  0  0  0  0  0  0  0  0  0  0  0
  -15.6355   53.4433    8.6018 C   0  0  0  0  0  0  0  0  0  0  0  0
  -15.8280   53.2652    9.9800 C   0  0  0  0  0  0  0  0  0  0  0  0
  -14.8237   53.3739   10.9126 N   0  0  0  0  0  0  0  0  0  0  0  0
  -13.5009   53.0347   10.7342 C   0  0  0  0  0  0  0  0  0  0  0  0
  -12.6672   53.1809   11.7809 N   0  0  0  0  0  0  0  0  0  0  0  0
  -11.3566   52.8734   11.6080 C   0  0  0  0  0  0  0  0  0  0  0  0
  -10.8790   52.4048   10.3948 C   0  0  0  0  0  0  0  0  0  0  0  0
  -11.7920   52.2431    9.3701 C   0  0  0  0  0  0  0  0  0  0  0  0
  -11.3905   51.7402    8.0513 C   0  0  0  0  0  0  0  0  0  0  0  0
  -10.1217   51.6853    7.5502 C   0  0  0  0  0  0  0  0  0  0  0  0
  -10.1569   51.2047    6.3011 N   0  0  0  0  0  0  0  0  0  0  0  0
   -8.9974   51.0169    5.4497 C   0  0  0  0  0  0  0  0  0  0  0  0
  -11.4534   50.9225    5.9538 C   0  0  0  0  0  0  0  0  0  0  0  0
  -11.9816   50.4153    4.7829 C   0  0  0  0  0  0  0  0  0  0  0  0
  -13.3382   50.2253    4.7042 C   0  0  0  0  0  0  0  0  0  0  0  0
  -14.1602   50.5280    5.7655 C   0  0  0  0  0  0  0  0  0  0  0  0
  -13.6403   51.0372    6.9514 C   0  0  0  0  0  0  0  0  0  0  0  0
  -12.2571   51.2411    7.0375 C   0  0  0  0  0  0  0  0  0  0  0  0
  -13.0915   52.5627    9.5451 N   0  0  0  0  0  0  0  0  0  0  0  0
  -17.1101   52.9768   10.4507 C   0  0  0  0  0  0  0  0  0  0  0  0
  -17.2623   52.8509   11.7908 O   0  0  0  0  0  0  0  0  0  0  0  0
  -18.5649   52.5624   12.2746 C   0  0  0  0  0  0  0  0  0  0  0  0
  -18.1401   52.8231    9.5533 C   0  0  0  0  0  0  0  0  0  0  0  0
  -17.9460   52.9689    8.1833 C   0  0  0  0  0  0  0  0  0  0  0  0
  -19.0285   52.7618    7.2872 N   0  0  0  0  0  0  0  0  0  0  0  0
  -19.0950   51.4284    6.6676 C   0  0  0  0  0  0  0  0  0  0  0  0
  -20.3036   53.3766    7.7330 C   0  0  0  0  0  0  0  0  0  0  0  0
  -20.4986   54.6255    6.9362 C   0  0  0  0  0  0  0  0  0  0  0  0
  -21.6754   55.3817    7.4495 N   0  0  0  0  0  0  0  0  0  0  0  0
  -22.5983   55.6798    6.3692 C   0  0  0  0  0  0  0  0  0  0  0  0
  -21.2160   56.6011    8.1209 C   0  0  0  0  0  0  0  0  0  0  0  0
  1  2  1  0  0  0  0
  2  3  1  0  0  0  0
  3  4  2  0  0  0  0
  3  5  1  0  0  0  0
  5  6  1  0  0  0  0
  6  7  4  0  0  0  0
  6 30  4  0  0  0  0
  7  8  4  0  0  0  0
  8  9  1  0  0  0  0
  8 26  4  0  0  0  0
  9 10  1  0  0  0  0
 10 11  4  0  0  0  0
 10 25  4  0  0  0  0
 11 12  4  0  0  0  0
 12 13  4  0  0  0  0
 13 14  4  0  0  0  0
 14 15  1  0  0  0  0
 14 25  4  0  0  0  0
 15 16  4  0  0  0  0
 15 24  4  0  0  0  0
 16 17  4  0  0  0  0
 17 18  1  0  0  0  0
 17 19  4  0  0  0  0
 19 20  4  0  0  0  0
 19 24  4  0  0  0  0
 20 21  4  0  0  0  0
 21 22  4  0  0  0  0
 22 23  4  0  0  0  0
 23 24  4  0  0  0  0
 26 27  1  0  0  0  0
 26 29  4  0  0  0  0
 27 28  1  0  0  0  0
 29 30  4  0  0  0  0
 30 31  1  0  0  0  0
 31 32  1  0  0  0  0
 31 33  1  0  0  0  0
 33 34  1  0  0  0  0
 34 35  1  0  0  0  0
 35 36  1  0  0  0  0
 35 37  1  0  0  0  0
M  END
$$$$
