mol_bioactive_29
     RDKit          3D

151157  0  0  0  0  0  0  0  0999 V2000
   -1.8393    5.6641    1.3848 C   0  0  0  0  0  0  0  0  0  0  0  0
   -0.4750    6.2772    1.0752 C   0  0  2  0  0  0  0  0  0  0  0  0
    0.0795    5.7489   -0.1371 O   0  0  0  0  0  0  0  0  0  0  0  0
   -0.4555    6.3398   -1.3098 C   0  0  0  0  0  0  0  0  0  0  0  0
    0.4783    6.1245    2.2566 C   0  0  0  0  0  0  0  0  0  0  0  0
    0.6424    7.2774    2.9803 N   0  0  0  0  0  0  0  0  0  0  0  0
    1.4276    7.2439    4.0759 C   0  0  0  0  0  0  0  0  0  0  0  0
    2.0663    6.1071    4.5215 C   0  0  0  0  0  0  0  0  0  0  0  0
    1.8947    4.9365    3.7934 C   0  0  0  0  0  0  0  0  0  0  0  0
    1.0970    4.9192    2.6390 C   0  0  0  0  0  0  0  0  0  0  0  0
    0.9491    3.6410    1.9295 C   0  0  0  0  0  0  0  0  0  0  0  0
    0.0701    2.6420    2.3311 N   0  0  0  0  0  0  0  0  0  0  0  0
   -0.7942    2.6840    3.5042 C   0  0  0  0  0  0  0  0  0  0  0  0
   -0.2127    1.9136    4.6792 C   0  0  0  0  0  0  0  0  0  0  0  0
    1.6242    3.1710    0.8026 C   0  0  0  0  0  0  0  0  0  0  0  0
    2.6998    3.8708   -0.0025 C   0  0  0  0  0  0  0  0  0  0  0  0
    4.1833    3.5094    0.3094 C   0  0  0  0  0  0  0  0  0  0  0  0
    4.5141    3.8013    1.7849 C   0  0  0  0  0  0  0  0  0  0  0  0
    5.0761    4.4267   -0.5592 C   0  0  0  0  0  0  0  0  0  0  0  0
    4.5411    2.0274    0.0240 C   0  0  0  0  0  0  0  0  0  0  0  0
    4.6803    1.7405   -1.3873 O   0  0  0  0  0  0  0  0  0  0  0  0
    5.9302    1.3333   -1.7900 C   0  0  0  0  0  0  0  0  0  0  0  0
    5.9498    0.9002   -3.2638 C   0  0  1  0  0  0  0  0  0  0  0  0
    5.1153    1.7827   -4.0981 N   0  0  0  0  0  0  0  0  0  0  0  0
    5.1193    1.3617   -5.4572 N   0  0  0  0  0  0  0  0  0  0  0  0
    4.0130    0.8765   -6.1707 C   0  0  0  0  0  0  0  0  0  0  0  0
    2.7667    0.4690   -5.3622 C   0  0  1  0  0  0  0  0  0  0  0  0
    1.5365    0.7443   -6.0881 N   0  0  0  0  0  0  0  0  0  0  0  0
    0.8969    1.9581   -5.9650 C   0  0  0  0  0  0  0  0  0  0  0  0
   -0.4482    2.0744   -6.7293 C   0  0  2  0  0  0  0  0  0  0  0  0
   -0.2719    2.8048   -8.0866 C   0  0  0  0  0  0  0  0  0  0  0  0
    0.7411    2.0853   -8.9875 C   0  0  0  0  0  0  0  0  0  0  0  0
   -1.6059    2.9027   -8.8365 C   0  0  0  0  0  0  0  0  0  0  0  0
   -1.4526    2.6769   -5.8046 N   0  0  0  0  0  0  0  0  0  0  0  0
   -2.1392    1.7807   -4.9764 C   0  0  0  0  0  0  0  0  0  0  0  0
   -2.9692    2.2946   -3.7718 C   0  0  0  0  0  0  0  0  0  0  0  0
   -2.0394    2.7604   -2.6458 C   0  0  0  0  0  0  0  0  0  0  0  0
   -2.8144    3.1107   -1.3818 C   0  0  0  0  0  0  0  0  0  0  0  0
   -3.6950    2.0252   -0.9852 N   0  0  0  0  0  0  0  0  0  0  0  0
   -3.9081    1.8056    0.3717 C   0  0  0  0  0  0  0  0  0  0  0  0
   -4.6262    0.6099    0.7581 C   0  0  0  0  0  0  0  0  0  0  0  0
   -5.1511   -0.4195    1.0913 C   0  0  0  0  0  0  0  0  0  0  0  0
   -5.7399   -1.7169    1.5158 C   0  0  0  0  0  0  0  0  0  0  0  0
   -6.5406   -1.4922    2.7458 N   0  0  0  0  0  0  0  0  0  0  0  0
   -6.8854   -2.7045    3.4890 C   0  0  0  0  0  0  0  0  0  0  0  0
   -7.7507   -0.6924    2.5327 C   0  0  0  0  0  0  0  0  0  0  0  0
   -6.5551   -2.2944    0.3394 C   0  0  0  0  0  0  0  0  0  0  0  0
   -4.5411   -2.6654    1.7742 C   0  0  0  0  0  0  0  0  0  0  0  0
   -3.4840    2.5309    1.2631 O   0  0  0  0  0  0  0  0  0  0  0  0
   -4.6239    1.5597   -2.0066 C   0  0  0  0  0  0  0  0  0  0  0  0
   -3.8878    1.1674   -3.2748 C   0  0  0  0  0  0  0  0  0  0  0  0
   -2.0488    0.5610   -5.1744 O   0  0  0  0  0  0  0  0  0  0  0  0
   -1.3976    4.1191   -5.5674 C   0  0  0  0  0  0  0  0  0  0  0  0
    1.3711    2.8718   -5.2910 O   0  0  0  0  0  0  0  0  0  0  0  0
    2.8893   -1.0252   -4.9960 C   0  0  0  0  0  0  0  0  0  0  0  0
    1.8341   -1.5461   -4.0038 C   0  0  1  0  0  0  0  0  0  0  0  0
    1.6647   -0.5932   -2.8143 C   0  0  0  0  0  0  0  0  0  0  0  0
    0.6349   -1.0462   -1.8597 N   0  0  0  0  0  0  0  0  0  0  0  0
   -0.6392   -1.3566   -2.5600 C   0  0  0  0  0  0  0  0  0  0  0  0
   -0.3971   -2.2615   -3.7851 C   0  0  0  0  0  0  0  0  0  0  0  0
    0.5837   -1.7216   -4.6902 O   0  0  0  0  0  0  0  0  0  0  0  0
    4.0567    0.6699   -7.3887 O   0  0  0  0  0  0  0  0  0  0  0  0
    6.4299    1.4769   -6.0996 C   0  0  0  0  0  0  0  0  0  0  0  0
    7.4346    0.6247   -5.3211 C   0  0  0  0  0  0  0  0  0  0  0  0
    7.3868    0.9369   -3.8193 C   0  0  0  0  0  0  0  0  0  0  0  0
    6.9040    1.2340   -1.0478 O   0  0  0  0  0  0  0  0  0  0  0  0
    1.0180    1.9214    0.4569 C   0  0  0  0  0  0  0  0  0  0  0  0
    0.0769    1.5992    1.4235 C   0  0  0  0  0  0  0  0  0  0  0  0
   -0.6616    0.4063    1.3575 C   0  0  0  0  0  0  0  0  0  0  0  0
   -0.4486   -0.4558    0.2664 C   0  0  0  0  0  0  0  0  0  0  0  0
    0.4566   -0.1590   -0.7578 C   0  0  0  0  0  0  0  0  0  0  0  0
    1.1942    1.0334   -0.6230 C   0  0  0  0  0  0  0  0  0  0  0  0
   -3.7882    3.3365   -4.1197 F   0  0  0  0  0  0  0  0  0  0  0  0
   -2.2313    6.0191    2.3441 H   0  0  0  0  0  0  0  0  0  0  0  0
   -2.5681    5.9170    0.6080 H   0  0  0  0  0  0  0  0  0  0  0  0
   -1.7878    4.5740    1.4154 H   0  0  0  0  0  0  0  0  0  0  0  0
   -0.6210    7.3575    0.9359 H   0  0  0  0  0  0  0  0  0  0  0  0
   -0.2774    7.4194   -1.3192 H   0  0  0  0  0  0  0  0  0  0  0  0
    0.0483    5.8954   -2.1720 H   0  0  0  0  0  0  0  0  0  0  0  0
   -1.5255    6.1339   -1.4009 H   0  0  0  0  0  0  0  0  0  0  0  0
    1.5256    8.1886    4.6021 H   0  0  0  0  0  0  0  0  0  0  0  0
    2.6846    6.1293    5.4108 H   0  0  0  0  0  0  0  0  0  0  0  0
    2.3913    4.0291    4.1257 H   0  0  0  0  0  0  0  0  0  0  0  0
   -0.9673    3.7280    3.7803 H   0  0  0  0  0  0  0  0  0  0  0  0
   -1.7662    2.2689    3.2224 H   0  0  0  0  0  0  0  0  0  0  0  0
   -0.8812    1.9827    5.5426 H   0  0  0  0  0  0  0  0  0  0  0  0
   -0.0842    0.8537    4.4349 H   0  0  0  0  0  0  0  0  0  0  0  0
    0.7650    2.3077    4.9723 H   0  0  0  0  0  0  0  0  0  0  0  0
    2.5036    3.6917   -1.0682 H   0  0  0  0  0  0  0  0  0  0  0  0
    2.5748    4.9539    0.1301 H   0  0  0  0  0  0  0  0  0  0  0  0
    3.9787    3.1235    2.4568 H   0  0  0  0  0  0  0  0  0  0  0  0
    5.5847    3.6717    1.9831 H   0  0  0  0  0  0  0  0  0  0  0  0
    4.2606    4.8336    2.0499 H   0  0  0  0  0  0  0  0  0  0  0  0
    4.9547    5.4791   -0.2785 H   0  0  0  0  0  0  0  0  0  0  0  0
    6.1363    4.1739   -0.4439 H   0  0  0  0  0  0  0  0  0  0  0  0
    4.8241    4.3416   -1.6224 H   0  0  0  0  0  0  0  0  0  0  0  0
    5.4550    1.7656    0.5710 H   0  0  0  0  0  0  0  0  0  0  0  0
    3.7791    1.3509    0.4199 H   0  0  0  0  0  0  0  0  0  0  0  0
    5.5619   -0.1255   -3.2927 H   0  0  0  0  0  0  0  0  0  0  0  0
    4.1957    1.9587   -3.6983 H   0  0  0  0  0  0  0  0  0  0  0  0
    2.7388    1.0762   -4.4615 H   0  0  0  0  0  0  0  0  0  0  0  0
    1.1283    0.0030   -6.6470 H   0  0  0  0  0  0  0  0  0  0  0  0
   -0.7763    1.0535   -6.9635 H   0  0  0  0  0  0  0  0  0  0  0  0
    0.1135    3.8170   -7.9190 H   0  0  0  0  0  0  0  0  0  0  0  0
    1.7484    2.1216   -8.5598 H   0  0  0  0  0  0  0  0  0  0  0  0
    0.4672    1.0346   -9.1362 H   0  0  0  0  0  0  0  0  0  0  0  0
    0.7937    2.5611   -9.9720 H   0  0  0  0  0  0  0  0  0  0  0  0
   -2.3389    3.4940   -8.2820 H   0  0  0  0  0  0  0  0  0  0  0  0
   -1.4707    3.3855   -9.8082 H   0  0  0  0  0  0  0  0  0  0  0  0
   -2.0367    1.9110   -9.0086 H   0  0  0  0  0  0  0  0  0  0  0  0
   -1.3125    1.9697   -2.4197 H   0  0  0  0  0  0  0  0  0  0  0  0
   -1.4618    3.6399   -2.9432 H   0  0  0  0  0  0  0  0  0  0  0  0
   -2.1051    3.3338   -0.5805 H   0  0  0  0  0  0  0  0  0  0  0  0
   -3.4309    4.0031   -1.5346 H   0  0  0  0  0  0  0  0  0  0  0  0
   -7.4696   -2.4550    4.3831 H   0  0  0  0  0  0  0  0  0  0  0  0
   -7.4733   -3.4094    2.8914 H   0  0  0  0  0  0  0  0  0  0  0  0
   -5.9936   -3.2176    3.8632 H   0  0  0  0  0  0  0  0  0  0  0  0
   -8.1723   -0.3872    3.4960 H   0  0  0  0  0  0  0  0  0  0  0  0
   -7.5443    0.2332    1.9887 H   0  0  0  0  0  0  0  0  0  0  0  0
   -8.5234   -1.2465    1.9899 H   0  0  0  0  0  0  0  0  0  0  0  0
   -7.0244   -3.2488    0.6005 H   0  0  0  0  0  0  0  0  0  0  0  0
   -7.3408   -1.6088    0.0021 H   0  0  0  0  0  0  0  0  0  0  0  0
   -5.9119   -2.4770   -0.5317 H   0  0  0  0  0  0  0  0  0  0  0  0
   -3.9408   -2.3278    2.6276 H   0  0  0  0  0  0  0  0  0  0  0  0
   -4.8646   -3.6940    1.9628 H   0  0  0  0  0  0  0  0  0  0  0  0
   -3.8683   -2.6972    0.9070 H   0  0  0  0  0  0  0  0  0  0  0  0
   -5.2202    0.7139   -1.6528 H   0  0  0  0  0  0  0  0  0  0  0  0
   -5.3265    2.3791   -2.2021 H   0  0  0  0  0  0  0  0  0  0  0  0
   -4.6232    0.9176   -4.0489 H   0  0  0  0  0  0  0  0  0  0  0  0
   -3.3120    0.2565   -3.0711 H   0  0  0  0  0  0  0  0  0  0  0  0
   -2.2820    4.4852   -5.0505 H   0  0  0  0  0  0  0  0  0  0  0  0
   -0.5215    4.3618   -4.9619 H   0  0  0  0  0  0  0  0  0  0  0  0
   -1.3408    4.6607   -6.5137 H   0  0  0  0  0  0  0  0  0  0  0  0
    2.8408   -1.6246   -5.9145 H   0  0  0  0  0  0  0  0  0  0  0  0
    3.8797   -1.2027   -4.5608 H   0  0  0  0  0  0  0  0  0  0  0  0
    2.1588   -2.5334   -3.6507 H   0  0  0  0  0  0  0  0  0  0  0  0
    2.6367   -0.5000   -2.3144 H   0  0  0  0  0  0  0  0  0  0  0  0
    1.3356    0.3803   -3.1928 H   0  0  0  0  0  0  0  0  0  0  0  0
   -1.3469   -1.8659   -1.8977 H   0  0  0  0  0  0  0  0  0  0  0  0
   -1.0924   -0.4191   -2.9003 H   0  0  0  0  0  0  0  0  0  0  0  0
   -0.0713   -3.2598   -3.4704 H   0  0  0  0  0  0  0  0  0  0  0  0
   -1.3304   -2.3794   -4.3444 H   0  0  0  0  0  0  0  0  0  0  0  0
    6.3905    1.1487   -7.1425 H   0  0  0  0  0  0  0  0  0  0  0  0
    6.7214    2.5339   -6.0891 H   0  0  0  0  0  0  0  0  0  0  0  0
    7.1947   -0.4366   -5.4670 H   0  0  0  0  0  0  0  0  0  0  0  0
    8.4467    0.7850   -5.7092 H   0  0  0  0  0  0  0  0  0  0  0  0
    7.8296    1.9268   -3.6456 H   0  0  0  0  0  0  0  0  0  0  0  0
    8.0168    0.2167   -3.2829 H   0  0  0  0  0  0  0  0  0  0  0  0
   -1.3901    0.1489    2.1192 H   0  0  0  0  0  0  0  0  0  0  0  0
   -1.0099   -1.3865    0.2437 H   0  0  0  0  0  0  0  0  0  0  0  0
    1.9198    1.3434   -1.3620 H   0  0  0  0  0  0  0  0  0  0  0  0
  1  2  1  0
  2  3  1  0
  2  5  1  0
  3  4  1  0
  5  6  2  0
  5 10  1  0
  6  7  1  0
  7  8  2  0
  8  9  1  0
  9 10  2  0
 10 11  1  0
 11 12  1  0
 11 15  2  0
 12 13  1  0
 12 68  1  0
 13 14  1  0
 15 16  1  0
 15 67  1  0
 16 17  1  0
 17 18  1  0
 17 19  1  0
 17 20  1  0
 20 21  1  0
 21 22  1  0
 22 23  1  0
 22 66  2  0
 23 24  1  0
 23 65  1  0
 24 25  1  0
 25 26  1  0
 25 63  1  0
 26 27  1  0
 26 62  2  0
 27 28  1  0
 27 55  1  0
 28 29  1  0
 29 30  1  0
 29 54  2  0
 30 31  1  0
 30 34  1  0
 31 32  1  0
 31 33  1  0
 34 35  1  0
 34 53  1  0
 35 36  1  0
 35 52  2  0
 36 37  1  0
 36 51  1  0
 36 73  1  0
 37 38  1  0
 38 39  1  0
 39 40  1  0
 39 50  1  0
 40 41  1  0
 40 49  2  0
 42 43  1  0
 43 44  1  0
 43 47  1  0
 43 48  1  0
 44 45  1  0
 44 46  1  0
 50 51  1  0
 55 56  1  0
 56 57  1  0
 56 61  1  0
 57 58  1  0
 58 59  1  0
 58 71  1  0
 59 60  1  0
 60 61  1  0
 63 64  1  0
 64 65  1  0
 67 68  2  0
 67 72  1  0
 68 69  1  0
 69 70  2  0
 70 71  1  0
 71 72  2  0
 41 42  3  0
  1 74  1  0
  1 75  1  0
  1 76  1  0
  2 77  1  6
  4 78  1  0
  4 79  1  0
  4 80  1  0
  7 81  1  0
  8 82  1  0
  9 83  1  0
 13 84  1  0
 13 85  1  0
 14 86  1  0
 14 87  1  0
 14 88  1  0
 16 89  1  0
 16 90  1  0
 18 91  1  0
 18 92  1  0
 18 93  1  0
 19 94  1  0
 19 95  1  0
 19 96  1  0
 20 97  1  0
 20 98  1  0
 23 99  1  1
 24100  1  0
 27101  1  1
 28102  1  0
 30103  1  6
 31104  1  0
 32105  1  0
 32106  1  0
 32107  1  0
 33108  1  0
 33109  1  0
 33110  1  0
 37111  1  0
 37112  1  0
 38113  1  0
 38114  1  0
 45115  1  0
 45116  1  0
 45117  1  0
 46118  1  0
 46119  1  0
 46120  1  0
 47121  1  0
 47122  1  0
 47123  1  0
 48124  1  0
 48125  1  0
 48126  1  0
 50127  1  0
 50128  1  0
 51129  1  0
 51130  1  0
 53131  1  0
 53132  1  0
 53133  1  0
 55134  1  0
 55135  1  0
 56136  1  1
 57137  1  0
 57138  1  0
 59139  1  0
 59140  1  0
 60141  1  0
 60142  1  0
 63143  1  0
 63144  1  0
 64145  1  0
 64146  1  0
 65147  1  0
 65148  1  0
 69149  1  0
 70150  1  0
 72151  1  0
M  END
$$$$
