 energy: -221.266536411549 gnorm: 0.000488018891 xtb: 6.7.1 (edcfbbe)
          08182520483D

151157  0     0  0            999 V2000
    0.2024   14.9145  -13.0541 C   0  0  0  0  0  0  0  0  0  0  0  0
   -0.2113   14.0828  -11.8424 C   0  0  0  0  0  0  0  0  0  0  0  0
   -0.8946   14.8612  -10.8704 O   0  0  0  0  0  0  0  0  0  0  0  0
   -2.2689   15.0153  -11.1110 C   0  0  0  0  0  0  0  0  0  0  0  0
    0.9914   13.4642  -11.1555 C   0  0  0  0  0  0  0  0  0  0  0  0
    2.1891   13.8493  -11.5602 N   0  0  0  0  0  0  0  0  0  0  0  0
    3.2624   13.3185  -11.0030 C   0  0  0  0  0  0  0  0  0  0  0  0
    3.2030   12.3547  -10.0100 C   0  0  0  0  0  0  0  0  0  0  0  0
    1.9522   11.9439   -9.5797 C   0  0  0  0  0  0  0  0  0  0  0  0
    0.8127   12.5080  -10.1451 C   0  0  0  0  0  0  0  0  0  0  0  0
   -0.5327   12.0714   -9.7442 C   0  0  0  0  0  0  0  0  0  0  0  0
   -1.1191   11.0196  -10.4179 N   0  0  0  0  0  0  0  0  0  0  0  0
   -0.4892   10.1960  -11.4148 C   0  0  0  0  0  0  0  0  0  0  0  0
    0.1225    8.9360  -10.8035 C   0  0  0  0  0  0  0  0  0  0  0  0
   -1.3939   12.5694   -8.7971 C   0  0  0  0  0  0  0  0  0  0  0  0
   -1.2355   13.7377   -7.8753 C   0  0  0  0  0  0  0  0  0  0  0  0
   -0.1776   13.6436   -6.7403 C   0  0  0  0  0  0  0  0  0  0  0  0
   -0.7101   14.3834   -5.5086 C   0  0  0  0  0  0  0  0  0  0  0  0
    1.1168   14.3326   -7.1862 C   0  0  0  0  0  0  0  0  0  0  0  0
    0.1651   12.1904   -6.3588 C   0  0  0  0  0  0  0  0  0  0  0  0
   -0.6458   11.6847   -5.2932 O   0  0  0  0  0  0  0  0  0  0  0  0
   -1.1497   10.4666   -5.4143 C   0  0  0  0  0  0  0  0  0  0  0  0
   -1.8527   10.0384   -4.1300 C   0  0  0  0  0  0  0  0  0  0  0  0
   -2.1329    8.6140   -4.2166 N   0  0  0  0  0  0  0  0  0  0  0  0
   -2.9033    8.1572   -3.1422 N   0  0  0  0  0  0  0  0  0  0  0  0
   -4.2174    7.8592   -3.1406 C   0  0  0  0  0  0  0  0  0  0  0  0
   -4.9777    8.1506   -4.4374 C   0  0  0  0  0  0  0  0  0  0  0  0
   -6.1202    7.2825   -4.5632 N   0  0  0  0  0  0  0  0  0  0  0  0
   -6.3079    6.5040   -5.6410 C   0  0  0  0  0  0  0  0  0  0  0  0
   -7.6809    5.8195   -5.7088 C   0  0  0  0  0  0  0  0  0  0  0  0
   -7.6310    4.3551   -5.2575 C   0  0  0  0  0  0  0  0  0  0  0  0
   -9.0425    3.7718   -5.1990 C   0  0  0  0  0  0  0  0  0  0  0  0
   -6.9801    4.2644   -3.8771 C   0  0  0  0  0  0  0  0  0  0  0  0
   -8.1706    6.0371   -7.0772 N   0  0  0  0  0  0  0  0  0  0  0  0
   -8.5969    7.2952   -7.3065 C   0  0  0  0  0  0  0  0  0  0  0  0
   -9.0358    7.7328   -8.7184 C   0  0  0  0  0  0  0  0  0  0  0  0
   -9.0690    9.2619   -8.8006 C   0  0  0  0  0  0  0  0  0  0  0  0
   -9.6618    9.7067  -10.1382 C   0  0  0  0  0  0  0  0  0  0  0  0
  -10.9679    9.1276  -10.3252 N   0  0  0  0  0  0  0  0  0  0  0  0
  -12.1378    9.8083  -10.2427 C   0  0  0  0  0  0  0  0  0  0  0  0
  -12.0011   11.2379  -10.1056 C   0  0  0  0  0  0  0  0  0  0  0  0
  -12.0016   12.4350   -9.9765 C   0  0  0  0  0  0  0  0  0  0  0  0
  -12.0520   13.8833   -9.7807 C   0  0  0  0  0  0  0  0  0  0  0  0
  -13.3803   14.3157   -9.3175 N   0  0  0  0  0  0  0  0  0  0  0  0
  -13.7457   13.7693   -8.0225 C   0  0  0  0  0  0  0  0  0  0  0  0
  -14.4377   14.0570  -10.2795 C   0  0  0  0  0  0  0  0  0  0  0  0
  -10.9806   14.2778   -8.7496 C   0  0  0  0  0  0  0  0  0  0  0  0
  -11.7125   14.5699  -11.1144 C   0  0  0  0  0  0  0  0  0  0  0  0
  -13.2306    9.2716  -10.2975 O   0  0  0  0  0  0  0  0  0  0  0  0
  -10.9692    7.6857  -10.3390 C   0  0  0  0  0  0  0  0  0  0  0  0
  -10.4205    7.1430   -9.0162 C   0  0  0  0  0  0  0  0  0  0  0  0
   -8.7490    8.0927   -6.3890 O   0  0  0  0  0  0  0  0  0  0  0  0
   -7.7563    5.0832   -8.0837 C   0  0  0  0  0  0  0  0  0  0  0  0
   -5.4884    6.4006   -6.5338 O   0  0  0  0  0  0  0  0  0  0  0  0
   -5.4226    9.6264   -4.3973 C   0  0  0  0  0  0  0  0  0  0  0  0
   -5.1449   10.3590   -5.7136 C   0  0  0  0  0  0  0  0  0  0  0  0
   -6.0572    9.8739   -6.8519 C   0  0  0  0  0  0  0  0  0  0  0  0
   -6.0610   10.8418   -7.9354 N   0  0  0  0  0  0  0  0  0  0  0  0
   -6.6452   12.0998   -7.4902 C   0  0  0  0  0  0  0  0  0  0  0  0
   -6.4665   12.3184   -5.9744 C   0  0  0  0  0  0  0  0  0  0  0  0
   -5.2526   11.7659   -5.5156 O   0  0  0  0  0  0  0  0  0  0  0  0
   -4.7854    7.4081   -2.1605 O   0  0  0  0  0  0  0  0  0  0  0  0
   -2.1330    8.2211   -1.9152 C   0  0  0  0  0  0  0  0  0  0  0  0
   -1.7273    9.6768   -1.6639 C   0  0  0  0  0  0  0  0  0  0  0  0
   -0.9868   10.2382   -2.8796 C   0  0  0  0  0  0  0  0  0  0  0  0
   -1.0772    9.7731   -6.3955 O   0  0  0  0  0  0  0  0  0  0  0  0
   -2.5859   11.7860   -8.8975 C   0  0  0  0  0  0  0  0  0  0  0  0
   -2.3695   10.8184   -9.9045 C   0  0  0  0  0  0  0  0  0  0  0  0
   -3.3452    9.8848  -10.2345 C   0  0  0  0  0  0  0  0  0  0  0  0
   -4.5428    9.9410   -9.5603 C   0  0  0  0  0  0  0  0  0  0  0  0
   -4.7845   10.9084   -8.5725 C   0  0  0  0  0  0  0  0  0  0  0  0
   -3.8113   11.8285   -8.2351 C   0  0  0  0  0  0  0  0  0  0  0  0
   -8.1380    7.3067   -9.6957 F   0  0  0  0  0  0  0  0  0  0  0  0
    0.8470   15.7249  -12.7295 H   0  0  0  0  0  0  0  0  0  0  0  0
    0.7484   14.2931  -13.7566 H   0  0  0  0  0  0  0  0  0  0  0  0
   -0.6741   15.3262  -13.5483 H   0  0  0  0  0  0  0  0  0  0  0  0
   -0.8753   13.2625  -12.1677 H   0  0  0  0  0  0  0  0  0  0  0  0
   -2.6562   15.6199  -10.2932 H   0  0  0  0  0  0  0  0  0  0  0  0
   -2.4664   15.5277  -12.0589 H   0  0  0  0  0  0  0  0  0  0  0  0
   -2.7818   14.0451  -11.1151 H   0  0  0  0  0  0  0  0  0  0  0  0
    4.2090   13.6806  -11.3820 H   0  0  0  0  0  0  0  0  0  0  0  0
    4.1030   11.9348   -9.5887 H   0  0  0  0  0  0  0  0  0  0  0  0
    1.8540   11.1917   -8.8096 H   0  0  0  0  0  0  0  0  0  0  0  0
   -1.2448    9.9182  -12.1564 H   0  0  0  0  0  0  0  0  0  0  0  0
    0.2858   10.7830  -11.9176 H   0  0  0  0  0  0  0  0  0  0  0  0
    0.9260    9.1983  -10.1201 H   0  0  0  0  0  0  0  0  0  0  0  0
   -0.6331    8.3858  -10.2486 H   0  0  0  0  0  0  0  0  0  0  0  0
    0.5242    8.2973  -11.5858 H   0  0  0  0  0  0  0  0  0  0  0  0
   -0.9950   14.6167   -8.4770 H   0  0  0  0  0  0  0  0  0  0  0  0
   -2.2113   13.9058   -7.4177 H   0  0  0  0  0  0  0  0  0  0  0  0
    0.0223   14.3584   -4.7047 H   0  0  0  0  0  0  0  0  0  0  0  0
   -0.9134   15.4214   -5.7609 H   0  0  0  0  0  0  0  0  0  0  0  0
   -1.6270   13.9250   -5.1477 H   0  0  0  0  0  0  0  0  0  0  0  0
    1.8525   14.3277   -6.3839 H   0  0  0  0  0  0  0  0  0  0  0  0
    1.5448   13.8377   -8.0517 H   0  0  0  0  0  0  0  0  0  0  0  0
    0.9141   15.3665   -7.4541 H   0  0  0  0  0  0  0  0  0  0  0  0
    0.0540   11.5275   -7.2211 H   0  0  0  0  0  0  0  0  0  0  0  0
    1.1982   12.1413   -5.9971 H   0  0  0  0  0  0  0  0  0  0  0  0
   -2.7619   10.6583   -4.0390 H   0  0  0  0  0  0  0  0  0  0  0  0
   -2.4942    8.3406   -5.1228 H   0  0  0  0  0  0  0  0  0  0  0  0
   -4.3643    7.9500   -5.3207 H   0  0  0  0  0  0  0  0  0  0  0  0
   -6.7722    7.2825   -3.7947 H   0  0  0  0  0  0  0  0  0  0  0  0
   -8.3724    6.3604   -5.0540 H   0  0  0  0  0  0  0  0  0  0  0  0
   -7.0154    3.7811   -5.9544 H   0  0  0  0  0  0  0  0  0  0  0  0
   -9.6208    4.2746   -4.4267 H   0  0  0  0  0  0  0  0  0  0  0  0
   -9.5685    3.8919   -6.1424 H   0  0  0  0  0  0  0  0  0  0  0  0
   -9.0019    2.7119   -4.9594 H   0  0  0  0  0  0  0  0  0  0  0  0
   -7.5293    4.8565   -3.1482 H   0  0  0  0  0  0  0  0  0  0  0  0
   -6.9782    3.2305   -3.5405 H   0  0  0  0  0  0  0  0  0  0  0  0
   -5.9518    4.6153   -3.9016 H   0  0  0  0  0  0  0  0  0  0  0  0
   -9.6679    9.6398   -7.9725 H   0  0  0  0  0  0  0  0  0  0  0  0
   -8.0521    9.6452   -8.7057 H   0  0  0  0  0  0  0  0  0  0  0  0
   -9.7360   10.7943  -10.1739 H   0  0  0  0  0  0  0  0  0  0  0  0
   -9.0103    9.3692  -10.9526 H   0  0  0  0  0  0  0  0  0  0  0  0
  -13.0520   14.1133   -7.2595 H   0  0  0  0  0  0  0  0  0  0  0  0
  -14.7356   14.1416   -7.7629 H   0  0  0  0  0  0  0  0  0  0  0  0
  -13.7753   12.6702   -8.0139 H   0  0  0  0  0  0  0  0  0  0  0  0
  -15.3795   14.3948   -9.8498 H   0  0  0  0  0  0  0  0  0  0  0  0
  -14.2657   14.6266  -11.1892 H   0  0  0  0  0  0  0  0  0  0  0  0
  -14.5340   12.9919  -10.5337 H   0  0  0  0  0  0  0  0  0  0  0  0
  -11.0278   13.6503   -7.8639 H   0  0  0  0  0  0  0  0  0  0  0  0
   -9.9905   14.1643   -9.1852 H   0  0  0  0  0  0  0  0  0  0  0  0
  -11.1246   15.3162   -8.4633 H   0  0  0  0  0  0  0  0  0  0  0  0
  -11.9258   15.6325  -11.0342 H   0  0  0  0  0  0  0  0  0  0  0  0
  -10.6570   14.4358  -11.3390 H   0  0  0  0  0  0  0  0  0  0  0  0
  -12.2840   14.1479  -11.9362 H   0  0  0  0  0  0  0  0  0  0  0  0
  -11.9972    7.3504  -10.4905 H   0  0  0  0  0  0  0  0  0  0  0  0
  -10.3447    7.3365  -11.1690 H   0  0  0  0  0  0  0  0  0  0  0  0
  -10.3674    6.0544   -9.0597 H   0  0  0  0  0  0  0  0  0  0  0  0
  -11.0851    7.4250   -8.1978 H   0  0  0  0  0  0  0  0  0  0  0  0
   -8.1025    4.0876   -7.8106 H   0  0  0  0  0  0  0  0  0  0  0  0
   -8.1697    5.3268   -9.0535 H   0  0  0  0  0  0  0  0  0  0  0  0
   -6.6667    5.0827   -8.1572 H   0  0  0  0  0  0  0  0  0  0  0  0
   -6.4921    9.6674   -4.1805 H   0  0  0  0  0  0  0  0  0  0  0  0
   -4.9113   10.1598   -3.5917 H   0  0  0  0  0  0  0  0  0  0  0  0
   -4.0991   10.1985   -6.0118 H   0  0  0  0  0  0  0  0  0  0  0  0
   -5.6959    8.9161   -7.2289 H   0  0  0  0  0  0  0  0  0  0  0  0
   -7.0814    9.7396   -6.4940 H   0  0  0  0  0  0  0  0  0  0  0  0
   -6.1967   12.9157   -8.0586 H   0  0  0  0  0  0  0  0  0  0  0  0
   -7.7189   12.0735   -7.7186 H   0  0  0  0  0  0  0  0  0  0  0  0
   -6.4104   13.3821   -5.7348 H   0  0  0  0  0  0  0  0  0  0  0  0
   -7.3131   11.8826   -5.4268 H   0  0  0  0  0  0  0  0  0  0  0  0
   -2.7555    7.8331   -1.1091 H   0  0  0  0  0  0  0  0  0  0  0  0
   -1.2440    7.5965   -2.0337 H   0  0  0  0  0  0  0  0  0  0  0  0
   -2.6250   10.2702   -1.4761 H   0  0  0  0  0  0  0  0  0  0  0  0
   -1.0924    9.7310   -0.7797 H   0  0  0  0  0  0  0  0  0  0  0  0
   -0.0498    9.6964   -3.0174 H   0  0  0  0  0  0  0  0  0  0  0  0
   -0.7661   11.2965   -2.7445 H   0  0  0  0  0  0  0  0  0  0  0  0
   -3.1775    9.1354  -10.9934 H   0  0  0  0  0  0  0  0  0  0  0  0
   -5.3243    9.2304   -9.7816 H   0  0  0  0  0  0  0  0  0  0  0  0
   -3.9836   12.5532   -7.4538 H   0  0  0  0  0  0  0  0  0  0  0  0
  1  2  1  0  0  0  0
  2  3  1  0  0  0  0
  2  5  1  0  0  0  0
  3  4  1  0  0  0  0
  5  6  2  0  0  0  0
  5 10  1  0  0  0  0
  6  7  1  0  0  0  0
  7  8  2  0  0  0  0
  8  9  1  0  0  0  0
  9 10  2  0  0  0  0
 10 11  1  0  0  0  0
 11 12  1  0  0  0  0
 11 15  2  0  0  0  0
 12 13  1  0  0  0  0
 12 68  1  0  0  0  0
 13 14  1  0  0  0  0
 15 16  1  0  0  0  0
 15 67  1  0  0  0  0
 16 17  1  0  0  0  0
 17 18  1  0  0  0  0
 17 19  1  0  0  0  0
 17 20  1  0  0  0  0
 20 21  1  0  0  0  0
 21 22  1  0  0  0  0
 22 23  1  0  0  0  0
 22 66  2  0  0  0  0
 23 24  1  0  0  0  0
 23 65  1  0  0  0  0
 24 25  1  0  0  0  0
 25 26  1  0  0  0  0
 25 63  1  0  0  0  0
 26 27  1  0  0  0  0
 26 62  2  0  0  0  0
 27 28  1  0  0  0  0
 27 55  1  0  0  0  0
 28 29  1  0  0  0  0
 29 30  1  0  0  0  0
 29 54  2  0  0  0  0
 30 31  1  0  0  0  0
 30 34  1  0  0  0  0
 31 32  1  0  0  0  0
 31 33  1  0  0  0  0
 34 35  1  0  0  0  0
 34 53  1  0  0  0  0
 35 36  1  0  0  0  0
 35 52  2  0  0  0  0
 36 37  1  0  0  0  0
 36 51  1  0  0  0  0
 36 73  1  0  0  0  0
 37 38  1  0  0  0  0
 38 39  1  0  0  0  0
 39 40  1  0  0  0  0
 39 50  1  0  0  0  0
 40 41  1  0  0  0  0
 40 49  2  0  0  0  0
 42 43  1  0  0  0  0
 43 44  1  0  0  0  0
 43 47  1  0  0  0  0
 43 48  1  0  0  0  0
 44 45  1  0  0  0  0
 44 46  1  0  0  0  0
 50 51  1  0  0  0  0
 55 56  1  0  0  0  0
 56 57  1  0  0  0  0
 56 61  1  0  0  0  0
 57 58  1  0  0  0  0
 58 59  1  0  0  0  0
 58 71  1  0  0  0  0
 59 60  1  0  0  0  0
 60 61  1  0  0  0  0
 63 64  1  0  0  0  0
 64 65  1  0  0  0  0
 67 68  2  0  0  0  0
 67 72  1  0  0  0  0
 68 69  1  0  0  0  0
 69 70  2  0  0  0  0
 70 71  1  0  0  0  0
 71 72  2  0  0  0  0
 41 42  3  0  0  0  0
  1 74  1  0  0  0  0
  1 75  1  0  0  0  0
  1 76  1  0  0  0  0
  2 77  1  0  0  0  0
  4 78  1  0  0  0  0
  4 79  1  0  0  0  0
  4 80  1  0  0  0  0
  7 81  1  0  0  0  0
  8 82  1  0  0  0  0
  9 83  1  0  0  0  0
 13 84  1  0  0  0  0
 13 85  1  0  0  0  0
 14 86  1  0  0  0  0
 14 87  1  0  0  0  0
 14 88  1  0  0  0  0
 16 89  1  0  0  0  0
 16 90  1  0  0  0  0
 18 91  1  0  0  0  0
 18 92  1  0  0  0  0
 18 93  1  0  0  0  0
 19 94  1  0  0  0  0
 19 95  1  0  0  0  0
 19 96  1  0  0  0  0
 20 97  1  0  0  0  0
 20 98  1  0  0  0  0
 23 99  1  0  0  0  0
 24100  1  0  0  0  0
 27101  1  0  0  0  0
 28102  1  0  0  0  0
 30103  1  0  0  0  0
 31104  1  0  0  0  0
 32105  1  0  0  0  0
 32106  1  0  0  0  0
 32107  1  0  0  0  0
 33108  1  0  0  0  0
 33109  1  0  0  0  0
 33110  1  0  0  0  0
 37111  1  0  0  0  0
 37112  1  0  0  0  0
 38113  1  0  0  0  0
 38114  1  0  0  0  0
 45115  1  0  0  0  0
 45116  1  0  0  0  0
 45117  1  0  0  0  0
 46118  1  0  0  0  0
 46119  1  0  0  0  0
 46120  1  0  0  0  0
 47121  1  0  0  0  0
 47122  1  0  0  0  0
 47123  1  0  0  0  0
 48124  1  0  0  0  0
 48125  1  0  0  0  0
 48126  1  0  0  0  0
 50127  1  0  0  0  0
 50128  1  0  0  0  0
 51129  1  0  0  0  0
 51130  1  0  0  0  0
 53131  1  0  0  0  0
 53132  1  0  0  0  0
 53133  1  0  0  0  0
 55134  1  0  0  0  0
 55135  1  0  0  0  0
 56136  1  0  0  0  0
 57137  1  0  0  0  0
 57138  1  0  0  0  0
 59139  1  0  0  0  0
 59140  1  0  0  0  0
 60141  1  0  0  0  0
 60142  1  0  0  0  0
 63143  1  0  0  0  0
 63144  1  0  0  0  0
 64145  1  0  0  0  0
 64146  1  0  0  0  0
 65147  1  0  0  0  0
 65148  1  0  0  0  0
 69149  1  0  0  0  0
 70150  1  0  0  0  0
 72151  1  0  0  0  0
M  END
$$$$
