mol_ETKDG4_23
     RDKit          3D

151157  0  0  0  0  0  0  0  0999 V2000
    2.5399    7.0531   -8.9990 C   0  0  0  0  0  0  0  0  0  0  0  0
    2.3734    5.6158   -8.4970 C   0  0  2  0  0  0  0  0  0  0  0  0
    3.5933    4.8884   -8.7087 O   0  0  0  0  0  0  0  0  0  0  0  0
    4.5340    5.0701   -7.6601 C   0  0  0  0  0  0  0  0  0  0  0  0
    1.2314    4.8880   -9.2050 C   0  0  0  0  0  0  0  0  0  0  0  0
    0.9444    5.2787  -10.4825 N   0  0  0  0  0  0  0  0  0  0  0  0
   -0.0577    4.6515  -11.1334 C   0  0  0  0  0  0  0  0  0  0  0  0
   -0.8199    3.6442  -10.5763 C   0  0  0  0  0  0  0  0  0  0  0  0
   -0.5319    3.2492   -9.2752 C   0  0  0  0  0  0  0  0  0  0  0  0
    0.5101    3.8614   -8.5665 C   0  0  0  0  0  0  0  0  0  0  0  0
    0.7801    3.4350   -7.1875 C   0  0  0  0  0  0  0  0  0  0  0  0
    0.0845    3.9249   -6.0997 N   0  0  0  0  0  0  0  0  0  0  0  0
   -1.0317    4.8627   -6.1565 C   0  0  0  0  0  0  0  0  0  0  0  0
   -2.3796    4.1656   -6.0895 C   0  0  0  0  0  0  0  0  0  0  0  0
    1.7594    2.5650   -6.7057 C   0  0  0  0  0  0  0  0  0  0  0  0
    2.7481    1.8011   -7.5550 C   0  0  0  0  0  0  0  0  0  0  0  0
    2.4066    0.3193   -7.8919 C   0  0  0  0  0  0  0  0  0  0  0  0
    0.9751    0.1458   -8.4222 C   0  0  0  0  0  0  0  0  0  0  0  0
    3.3789   -0.1344   -9.0097 C   0  0  0  0  0  0  0  0  0  0  0  0
    2.5966   -0.6044   -6.6714 C   0  0  0  0  0  0  0  0  0  0  0  0
    3.9628   -0.5318   -6.2370 O   0  0  0  0  0  0  0  0  0  0  0  0
    4.2780   -1.3215   -5.1745 C   0  0  0  0  0  0  0  0  0  0  0  0
    5.7316   -1.0716   -4.7698 C   0  0  1  0  0  0  0  0  0  0  0  0
    6.0921   -1.9448   -3.6461 N   0  0  0  0  0  0  0  0  0  0  0  0
    7.3740   -1.6257   -3.1571 N   0  0  0  0  0  0  0  0  0  0  0  0
    7.6659   -1.3600   -1.8169 C   0  0  0  0  0  0  0  0  0  0  0  0
    6.4990   -0.9459   -0.8845 C   0  0  1  0  0  0  0  0  0  0  0  0
    6.7409   -1.5479    0.4227 N   0  0  0  0  0  0  0  0  0  0  0  0
    6.5396   -2.9015    0.5979 C   0  0  0  0  0  0  0  0  0  0  0  0
    6.9810   -3.4454    1.9769 C   0  0  2  0  0  0  0  0  0  0  0  0
    7.5392   -4.8890    1.8591 C   0  0  0  0  0  0  0  0  0  0  0  0
    7.7556   -5.5334    3.2330 C   0  0  0  0  0  0  0  0  0  0  0  0
    8.8744   -4.8823    1.1006 C   0  0  0  0  0  0  0  0  0  0  0  0
    5.8269   -3.3089    2.9004 N   0  0  0  0  0  0  0  0  0  0  0  0
    5.7530   -2.1094    3.6271 C   0  0  0  0  0  0  0  0  0  0  0  0
    4.5452   -1.8821    4.5657 C   0  0  0  0  0  0  0  0  0  0  0  0
    4.6847   -2.7732    5.8111 C   0  0  0  0  0  0  0  0  0  0  0  0
    3.5621   -2.4884    6.8044 C   0  0  0  0  0  0  0  0  0  0  0  0
    3.5334   -1.0691    7.1217 N   0  0  0  0  0  0  0  0  0  0  0  0
    3.9490   -0.6453    8.3790 C   0  0  0  0  0  0  0  0  0  0  0  0
    4.1277    0.7723    8.6034 C   0  0  0  0  0  0  0  0  0  0  0  0
    4.3210    1.9495    8.7568 C   0  0  0  0  0  0  0  0  0  0  0  0
    4.6105    3.3988    8.9125 C   0  0  0  0  0  0  0  0  0  0  0  0
    6.0429    3.6306    8.5858 N   0  0  0  0  0  0  0  0  0  0  0  0
    6.3936    3.3669    7.1864 C   0  0  0  0  0  0  0  0  0  0  0  0
    6.5613    4.9426    8.9750 C   0  0  0  0  0  0  0  0  0  0  0  0
    4.2975    3.7525   10.3868 C   0  0  0  0  0  0  0  0  0  0  0  0
    3.6363    4.1913    8.0134 C   0  0  0  0  0  0  0  0  0  0  0  0
    4.1966   -1.4077    9.3065 O   0  0  0  0  0  0  0  0  0  0  0  0
    3.3345   -0.1895    5.9748 C   0  0  0  0  0  0  0  0  0  0  0  0
    4.4543   -0.3999    4.9629 C   0  0  0  0  0  0  0  0  0  0  0  0
    6.6749   -1.2868    3.5829 O   0  0  0  0  0  0  0  0  0  0  0  0
    4.6231   -4.0727    2.5771 C   0  0  0  0  0  0  0  0  0  0  0  0
    5.9730   -3.5941   -0.2460 O   0  0  0  0  0  0  0  0  0  0  0  0
    6.4644    0.5933   -0.8203 C   0  0  0  0  0  0  0  0  0  0  0  0
    5.0618    1.2020   -0.6711 C   0  0  1  0  0  0  0  0  0  0  0  0
    4.2920    1.2555   -2.0188 C   0  0  0  0  0  0  0  0  0  0  0  0
    2.9611    1.8470   -1.7892 N   0  0  0  0  0  0  0  0  0  0  0  0
    2.2059    1.1014   -0.7522 C   0  0  0  0  0  0  0  0  0  0  0  0
    3.0351    1.0494    0.5406 C   0  0  0  0  0  0  0  0  0  0  0  0
    4.3291    0.4668    0.3241 O   0  0  0  0  0  0  0  0  0  0  0  0
    8.8285   -1.3505   -1.3932 O   0  0  0  0  0  0  0  0  0  0  0  0
    8.4437   -1.9171   -4.1166 C   0  0  0  0  0  0  0  0  0  0  0  0
    8.1715   -1.1893   -5.4382 C   0  0  0  0  0  0  0  0  0  0  0  0
    6.7191   -1.3633   -5.9094 C   0  0  0  0  0  0  0  0  0  0  0  0
    3.4882   -2.0441   -4.5785 O   0  0  0  0  0  0  0  0  0  0  0  0
    1.7137    2.6356   -5.2675 C   0  0  0  0  0  0  0  0  0  0  0  0
    0.6483    3.4681   -4.9263 C   0  0  0  0  0  0  0  0  0  0  0  0
    0.3213    3.7408   -3.5934 C   0  0  0  0  0  0  0  0  0  0  0  0
    1.1119    3.1728   -2.5901 C   0  0  0  0  0  0  0  0  0  0  0  0
    2.2021    2.3347   -2.8592 C   0  0  0  0  0  0  0  0  0  0  0  0
    2.4968    2.0865   -4.2144 C   0  0  0  0  0  0  0  0  0  0  0  0
    3.3564   -2.1907    3.9523 F   0  0  0  0  0  0  0  0  0  0  0  0
    3.3038    7.5817   -8.4188 H   0  0  0  0  0  0  0  0  0  0  0  0
    2.8758    7.0738  -10.0425 H   0  0  0  0  0  0  0  0  0  0  0  0
    1.6046    7.6138   -8.9169 H   0  0  0  0  0  0  0  0  0  0  0  0
    2.1454    5.6719   -7.4259 H   0  0  0  0  0  0  0  0  0  0  0  0
    4.1151    4.7490   -6.7017 H   0  0  0  0  0  0  0  0  0  0  0  0
    5.4098    4.4510   -7.8764 H   0  0  0  0  0  0  0  0  0  0  0  0
    4.8582    6.1123   -7.5993 H   0  0  0  0  0  0  0  0  0  0  0  0
   -0.2357    4.9955  -12.1479 H   0  0  0  0  0  0  0  0  0  0  0  0
   -1.6161    3.1734  -11.1409 H   0  0  0  0  0  0  0  0  0  0  0  0
   -1.1157    2.4566   -8.8148 H   0  0  0  0  0  0  0  0  0  0  0  0
   -0.9220    5.5694   -5.3278 H   0  0  0  0  0  0  0  0  0  0  0  0
   -0.9513    5.4526   -7.0747 H   0  0  0  0  0  0  0  0  0  0  0  0
   -2.4961    3.6158   -5.1500 H   0  0  0  0  0  0  0  0  0  0  0  0
   -3.1888    4.9003   -6.1561 H   0  0  0  0  0  0  0  0  0  0  0  0
   -2.5023    3.4508   -6.9098 H   0  0  0  0  0  0  0  0  0  0  0  0
    2.8691    2.3416   -8.5020 H   0  0  0  0  0  0  0  0  0  0  0  0
    3.7338    1.8587   -7.0744 H   0  0  0  0  0  0  0  0  0  0  0  0
    0.2251    0.4287   -7.6764 H   0  0  0  0  0  0  0  0  0  0  0  0
    0.8156    0.7456   -9.3238 H   0  0  0  0  0  0  0  0  0  0  0  0
    0.7808   -0.8986   -8.6932 H   0  0  0  0  0  0  0  0  0  0  0  0
    4.4243    0.0101   -8.7185 H   0  0  0  0  0  0  0  0  0  0  0  0
    3.2403   -1.1954   -9.2482 H   0  0  0  0  0  0  0  0  0  0  0  0
    3.2134    0.4349   -9.9314 H   0  0  0  0  0  0  0  0  0  0  0  0
    1.9293   -0.3137   -5.8513 H   0  0  0  0  0  0  0  0  0  0  0  0
    2.3716   -1.6436   -6.9465 H   0  0  0  0  0  0  0  0  0  0  0  0
    5.7977   -0.0217   -4.4537 H   0  0  0  0  0  0  0  0  0  0  0  0
    5.3490   -2.0435   -2.9529 H   0  0  0  0  0  0  0  0  0  0  0  0
    5.5455   -1.3362   -1.2386 H   0  0  0  0  0  0  0  0  0  0  0  0
    7.3484   -1.0680    1.0812 H   0  0  0  0  0  0  0  0  0  0  0  0
    7.8042   -2.8186    2.3413 H   0  0  0  0  0  0  0  0  0  0  0  0
    6.8461   -5.5199    1.2921 H   0  0  0  0  0  0  0  0  0  0  0  0
    6.8076   -5.6798    3.7584 H   0  0  0  0  0  0  0  0  0  0  0  0
    8.2249   -6.5178    3.1300 H   0  0  0  0  0  0  0  0  0  0  0  0
    8.4042   -4.9161    3.8641 H   0  0  0  0  0  0  0  0  0  0  0  0
    9.2539   -5.9027    0.9759 H   0  0  0  0  0  0  0  0  0  0  0  0
    8.7649   -4.4484    0.1013 H   0  0  0  0  0  0  0  0  0  0  0  0
    9.6342   -4.3067    1.6394 H   0  0  0  0  0  0  0  0  0  0  0  0
    4.6586   -3.8349    5.5462 H   0  0  0  0  0  0  0  0  0  0  0  0
    5.6558   -2.5889    6.2880 H   0  0  0  0  0  0  0  0  0  0  0  0
    2.5883   -2.7581    6.3769 H   0  0  0  0  0  0  0  0  0  0  0  0
    3.7016   -3.0947    7.7047 H   0  0  0  0  0  0  0  0  0  0  0  0
    7.4829    3.3810    7.0617 H   0  0  0  0  0  0  0  0  0  0  0  0
    6.0727    2.3729    6.8594 H   0  0  0  0  0  0  0  0  0  0  0  0
    5.9713    4.1102    6.5014 H   0  0  0  0  0  0  0  0  0  0  0  0
    6.5133    5.0915   10.0578 H   0  0  0  0  0  0  0  0  0  0  0  0
    7.6258    5.0257    8.7201 H   0  0  0  0  0  0  0  0  0  0  0  0
    6.0359    5.7664    8.4804 H   0  0  0  0  0  0  0  0  0  0  0  0
    4.9918    3.2533   11.0742 H   0  0  0  0  0  0  0  0  0  0  0  0
    4.3474    4.8320   10.5702 H   0  0  0  0  0  0  0  0  0  0  0  0
    3.2865    3.4287   10.6666 H   0  0  0  0  0  0  0  0  0  0  0  0
    2.5952    4.0214    8.3175 H   0  0  0  0  0  0  0  0  0  0  0  0
    3.8179    5.2698    8.0683 H   0  0  0  0  0  0  0  0  0  0  0  0
    3.7037    3.8869    6.9616 H   0  0  0  0  0  0  0  0  0  0  0  0
    2.3631   -0.4399    5.5317 H   0  0  0  0  0  0  0  0  0  0  0  0
    3.2875    0.8612    6.2693 H   0  0  0  0  0  0  0  0  0  0  0  0
    5.4025   -0.0573    5.3979 H   0  0  0  0  0  0  0  0  0  0  0  0
    4.2586    0.2140    4.0772 H   0  0  0  0  0  0  0  0  0  0  0  0
    4.0404   -4.2768    3.4752 H   0  0  0  0  0  0  0  0  0  0  0  0
    4.0109   -3.4944    1.8778 H   0  0  0  0  0  0  0  0  0  0  0  0
    4.8762   -5.0374    2.1333 H   0  0  0  0  0  0  0  0  0  0  0  0
    7.0653    0.9214    0.0384 H   0  0  0  0  0  0  0  0  0  0  0  0
    6.9390    1.0361   -1.7049 H   0  0  0  0  0  0  0  0  0  0  0  0
    5.1855    2.2305   -0.3048 H   0  0  0  0  0  0  0  0  0  0  0  0
    4.8692    1.8619   -2.7262 H   0  0  0  0  0  0  0  0  0  0  0  0
    4.1704    0.2468   -2.4282 H   0  0  0  0  0  0  0  0  0  0  0  0
    1.2380    1.5544   -0.5181 H   0  0  0  0  0  0  0  0  0  0  0  0
    2.0225    0.0820   -1.1136 H   0  0  0  0  0  0  0  0  0  0  0  0
    3.1661    2.0540    0.9614 H   0  0  0  0  0  0  0  0  0  0  0  0
    2.5196    0.4392    1.2892 H   0  0  0  0  0  0  0  0  0  0  0  0
    9.4164   -1.6133   -3.7191 H   0  0  0  0  0  0  0  0  0  0  0  0
    8.4694   -3.0034   -4.2680 H   0  0  0  0  0  0  0  0  0  0  0  0
    8.3608   -0.1178   -5.2962 H   0  0  0  0  0  0  0  0  0  0  0  0
    8.8644   -1.5389   -6.2110 H   0  0  0  0  0  0  0  0  0  0  0  0
    6.5743   -2.3879   -6.2790 H   0  0  0  0  0  0  0  0  0  0  0  0
    6.5323   -0.6971   -6.7602 H   0  0  0  0  0  0  0  0  0  0  0  0
   -0.5031    4.3929   -3.3262 H   0  0  0  0  0  0  0  0  0  0  0  0
    0.8797    3.4405   -1.5615 H   0  0  0  0  0  0  0  0  0  0  0  0
    3.3374    1.4618   -4.4855 H   0  0  0  0  0  0  0  0  0  0  0  0
  1  2  1  0
  2  3  1  0
  2  5  1  0
  3  4  1  0
  5  6  2  0
  5 10  1  0
  6  7  1  0
  7  8  2  0
  8  9  1  0
  9 10  2  0
 10 11  1  0
 11 12  1  0
 11 15  2  0
 12 13  1  0
 12 68  1  0
 13 14  1  0
 15 16  1  0
 15 67  1  0
 16 17  1  0
 17 18  1  0
 17 19  1  0
 17 20  1  0
 20 21  1  0
 21 22  1  0
 22 23  1  0
 22 66  2  0
 23 24  1  0
 23 65  1  0
 24 25  1  0
 25 26  1  0
 25 63  1  0
 26 27  1  0
 26 62  2  0
 27 28  1  0
 27 55  1  0
 28 29  1  0
 29 30  1  0
 29 54  2  0
 30 31  1  0
 30 34  1  0
 31 32  1  0
 31 33  1  0
 34 35  1  0
 34 53  1  0
 35 36  1  0
 35 52  2  0
 36 37  1  0
 36 51  1  0
 36 73  1  0
 37 38  1  0
 38 39  1  0
 39 40  1  0
 39 50  1  0
 40 41  1  0
 40 49  2  0
 42 43  1  0
 43 44  1  0
 43 47  1  0
 43 48  1  0
 44 45  1  0
 44 46  1  0
 50 51  1  0
 55 56  1  0
 56 57  1  0
 56 61  1  0
 57 58  1  0
 58 59  1  0
 58 71  1  0
 59 60  1  0
 60 61  1  0
 63 64  1  0
 64 65  1  0
 67 68  2  0
 67 72  1  0
 68 69  1  0
 69 70  2  0
 70 71  1  0
 71 72  2  0
  1 74  1  0
  1 75  1  0
  1 76  1  0
  2 77  1  1
  4 78  1  0
  4 79  1  0
  4 80  1  0
  7 81  1  0
  8 82  1  0
  9 83  1  0
 13 84  1  0
 13 85  1  0
 14 86  1  0
 14 87  1  0
 14 88  1  0
 16 89  1  0
 16 90  1  0
 18 91  1  0
 18 92  1  0
 18 93  1  0
 19 94  1  0
 19 95  1  0
 19 96  1  0
 20 97  1  0
 20 98  1  0
 23 99  1  1
 24100  1  0
 27101  1  6
 28102  1  0
 30103  1  1
 31104  1  0
 32105  1  0
 32106  1  0
 32107  1  0
 33108  1  0
 33109  1  0
 33110  1  0
 37111  1  0
 37112  1  0
 38113  1  0
 38114  1  0
 45115  1  0
 45116  1  0
 45117  1  0
 46118  1  0
 46119  1  0
 46120  1  0
 47121  1  0
 47122  1  0
 47123  1  0
 48124  1  0
 48125  1  0
 48126  1  0
 50127  1  0
 50128  1  0
 51129  1  0
 51130  1  0
 53131  1  0
 53132  1  0
 53133  1  0
 55134  1  0
 55135  1  0
 56136  1  1
 57137  1  0
 57138  1  0
 59139  1  0
 59140  1  0
 60141  1  0
 60142  1  0
 63143  1  0
 63144  1  0
 64145  1  0
 64146  1  0
 65147  1  0
 65148  1  0
 69149  1  0
 70150  1  0
 72151  1  0
 41 42  3  0
M  END
$$$$
