 xtb: 6.7.1 (edcfbbe)
          08172523013D

151157  0     0  0            999 V2000
    1.9946    6.7489   -8.7664 C   0  0  0  0  0  0  0  0  0  0  0  0
    2.0005    5.3459   -8.1620 C   0  0  0  0  0  0  0  0  0  0  0  0
    3.2491    4.6901   -8.3312 O   0  0  0  0  0  0  0  0  0  0  0  0
    4.2317    5.0581   -7.3998 C   0  0  0  0  0  0  0  0  0  0  0  0
    0.9611    4.4609   -8.8224 C   0  0  0  0  0  0  0  0  0  0  0  0
    0.6063    4.7697  -10.0577 N   0  0  0  0  0  0  0  0  0  0  0  0
   -0.2988    4.0342  -10.6754 C   0  0  0  0  0  0  0  0  0  0  0  0
   -0.9257    2.9501  -10.0825 C   0  0  0  0  0  0  0  0  0  0  0  0
   -0.5631    2.6207   -8.7880 C   0  0  0  0  0  0  0  0  0  0  0  0
    0.4124    3.3689   -8.1352 C   0  0  0  0  0  0  0  0  0  0  0  0
    0.8144    3.0488   -6.7574 C   0  0  0  0  0  0  0  0  0  0  0  0
    0.0530    3.4893   -5.6977 N   0  0  0  0  0  0  0  0  0  0  0  0
   -1.1706    4.2402   -5.7821 C   0  0  0  0  0  0  0  0  0  0  0  0
   -2.4016    3.3501   -5.6142 C   0  0  0  0  0  0  0  0  0  0  0  0
    1.9187    2.3680   -6.3027 C   0  0  0  0  0  0  0  0  0  0  0  0
    2.9859    1.7564   -7.1527 C   0  0  0  0  0  0  0  0  0  0  0  0
    2.8051    0.2571   -7.4864 C   0  0  0  0  0  0  0  0  0  0  0  0
    1.3785   -0.0406   -7.9435 C   0  0  0  0  0  0  0  0  0  0  0  0
    3.7839   -0.1164   -8.6025 C   0  0  0  0  0  0  0  0  0  0  0  0
    3.0975   -0.6048   -6.2543 C   0  0  0  0  0  0  0  0  0  0  0  0
    4.4765   -0.4732   -5.8945 O   0  0  0  0  0  0  0  0  0  0  0  0
    4.8513   -1.0418   -4.7590 C   0  0  0  0  0  0  0  0  0  0  0  0
    6.3203   -0.7897   -4.4532 C   0  0  0  0  0  0  0  0  0  0  0  0
    6.8656   -1.8584   -3.6341 N   0  0  0  0  0  0  0  0  0  0  0  0
    8.0673   -1.4337   -3.0627 N   0  0  0  0  0  0  0  0  0  0  0  0
    8.1836   -0.7124   -1.9236 C   0  0  0  0  0  0  0  0  0  0  0  0
    6.8991   -0.5603   -1.0837 C   0  0  0  0  0  0  0  0  0  0  0  0
    6.9441   -1.4716    0.0370 N   0  0  0  0  0  0  0  0  0  0  0  0
    6.4557   -2.7155   -0.0667 C   0  0  0  0  0  0  0  0  0  0  0  0
    6.4476   -3.4605    1.2701 C   0  0  0  0  0  0  0  0  0  0  0  0
    6.4752   -4.9842    1.0996 C   0  0  0  0  0  0  0  0  0  0  0  0
    6.2409   -5.6812    2.4366 C   0  0  0  0  0  0  0  0  0  0  0  0
    7.8310   -5.3792    0.5168 C   0  0  0  0  0  0  0  0  0  0  0  0
    5.2869   -2.9658    2.0119 N   0  0  0  0  0  0  0  0  0  0  0  0
    5.5292   -2.0392    2.9560 C   0  0  0  0  0  0  0  0  0  0  0  0
    4.3967   -1.5660    3.8811 C   0  0  0  0  0  0  0  0  0  0  0  0
    4.3069   -2.5460    5.0578 C   0  0  0  0  0  0  0  0  0  0  0  0
    3.2891   -2.0453    6.0841 C   0  0  0  0  0  0  0  0  0  0  0  0
    3.6151   -0.7041    6.5035 N   0  0  0  0  0  0  0  0  0  0  0  0
    3.9462   -0.4582    7.7960 C   0  0  0  0  0  0  0  0  0  0  0  0
    4.2760    0.9162    8.0899 C   0  0  0  0  0  0  0  0  0  0  0  0
    4.5812    2.0105    8.4873 C   0  0  0  0  0  0  0  0  0  0  0  0
    4.8363    3.3728    8.9457 C   0  0  0  0  0  0  0  0  0  0  0  0
    6.0720    3.8717    8.3322 N   0  0  0  0  0  0  0  0  0  0  0  0
    6.1873    3.6344    6.9103 C   0  0  0  0  0  0  0  0  0  0  0  0
    6.3945    5.2456    8.6484 C   0  0  0  0  0  0  0  0  0  0  0  0
    5.0150    3.2923   10.4717 C   0  0  0  0  0  0  0  0  0  0  0  0
    3.5773    4.2023    8.6085 C   0  0  0  0  0  0  0  0  0  0  0  0
    3.9395   -1.3158    8.6598 O   0  0  0  0  0  0  0  0  0  0  0  0
    3.6575    0.2606    5.4345 C   0  0  0  0  0  0  0  0  0  0  0  0
    4.6921   -0.1518    4.3855 C   0  0  0  0  0  0  0  0  0  0  0  0
    6.6599   -1.6379    3.1984 O   0  0  0  0  0  0  0  0  0  0  0  0
    3.9825   -3.2740    1.4635 C   0  0  0  0  0  0  0  0  0  0  0  0
    6.0060   -3.1777   -1.1003 O   0  0  0  0  0  0  0  0  0  0  0  0
    6.7431    0.8904   -0.6252 C   0  0  0  0  0  0  0  0  0  0  0  0
    5.2820    1.2971   -0.4167 C   0  0  0  0  0  0  0  0  0  0  0  0
    4.4857    1.3241   -1.7325 C   0  0  0  0  0  0  0  0  0  0  0  0
    3.1262    1.7323   -1.4497 N   0  0  0  0  0  0  0  0  0  0  0  0
    2.5251    0.7956   -0.5147 C   0  0  0  0  0  0  0  0  0  0  0  0
    3.3522    0.7903    0.7688 C   0  0  0  0  0  0  0  0  0  0  0  0
    4.6877    0.4164    0.5171 O   0  0  0  0  0  0  0  0  0  0  0  0
    9.2475   -0.2548   -1.5495 O   0  0  0  0  0  0  0  0  0  0  0  0
    9.0937   -1.3767   -4.0875 C   0  0  0  0  0  0  0  0  0  0  0  0
    8.6664   -0.3741   -5.1677 C   0  0  0  0  0  0  0  0  0  0  0  0
    7.2487   -0.6756   -5.6665 C   0  0  0  0  0  0  0  0  0  0  0  0
    4.1130   -1.6262   -4.0086 O   0  0  0  0  0  0  0  0  0  0  0  0
    1.8474    2.3991   -4.8753 C   0  0  0  0  0  0  0  0  0  0  0  0
    0.6640    3.0964   -4.5386 C   0  0  0  0  0  0  0  0  0  0  0  0
    0.3047    3.3086   -3.2129 C   0  0  0  0  0  0  0  0  0  0  0  0
    1.1366    2.8235   -2.2332 C   0  0  0  0  0  0  0  0  0  0  0  0
    2.3239    2.1299   -2.5374 C   0  0  0  0  0  0  0  0  0  0  0  0
    2.6814    1.9258   -3.8591 C   0  0  0  0  0  0  0  0  0  0  0  0
    3.1552   -1.5286    3.2516 F   0  0  0  0  0  0  0  0  0  0  0  0
    2.7243    7.3822   -8.2684 H   0  0  0  0  0  0  0  0  0  0  0  0
    2.2326    6.6825   -9.8231 H   0  0  0  0  0  0  0  0  0  0  0  0
    1.0090    7.1916   -8.6544 H   0  0  0  0  0  0  0  0  0  0  0  0
    1.7755    5.4042   -7.0828 H   0  0  0  0  0  0  0  0  0  0  0  0
    3.8928    4.8687   -6.3730 H   0  0  0  0  0  0  0  0  0  0  0  0
    5.0996    4.4375   -7.6145 H   0  0  0  0  0  0  0  0  0  0  0  0
    4.5147    6.1123   -7.4922 H   0  0  0  0  0  0  0  0  0  0  0  0
   -0.5363    4.3403  -11.6858 H   0  0  0  0  0  0  0  0  0  0  0  0
   -1.6751    2.3834  -10.6127 H   0  0  0  0  0  0  0  0  0  0  0  0
   -1.0285    1.7865   -8.2827 H   0  0  0  0  0  0  0  0  0  0  0  0
   -1.1610    5.0060   -4.9997 H   0  0  0  0  0  0  0  0  0  0  0  0
   -1.2028    4.7423   -6.7536 H   0  0  0  0  0  0  0  0  0  0  0  0
   -2.3548    2.8181   -4.6673 H   0  0  0  0  0  0  0  0  0  0  0  0
   -3.3039    3.9553   -5.6335 H   0  0  0  0  0  0  0  0  0  0  0  0
   -2.4556    2.6205   -6.4180 H   0  0  0  0  0  0  0  0  0  0  0  0
    3.0283    2.3113   -8.0916 H   0  0  0  0  0  0  0  0  0  0  0  0
    3.9493    1.8709   -6.6515 H   0  0  0  0  0  0  0  0  0  0  0  0
    0.6692    0.1799   -7.1495 H   0  0  0  0  0  0  0  0  0  0  0  0
    1.1361    0.5658   -8.8118 H   0  0  0  0  0  0  0  0  0  0  0  0
    1.2770   -1.0893   -8.2147 H   0  0  0  0  0  0  0  0  0  0  0  0
    4.8048    0.0985   -8.2997 H   0  0  0  0  0  0  0  0  0  0  0  0
    3.7101   -1.1766   -8.8350 H   0  0  0  0  0  0  0  0  0  0  0  0
    3.5612    0.4515   -9.5025 H   0  0  0  0  0  0  0  0  0  0  0  0
    2.4744   -0.3032   -5.4063 H   0  0  0  0  0  0  0  0  0  0  0  0
    2.8978   -1.6615   -6.4641 H   0  0  0  0  0  0  0  0  0  0  0  0
    6.3367    0.1826   -3.9150 H   0  0  0  0  0  0  0  0  0  0  0  0
    6.2287   -2.2826   -2.9605 H   0  0  0  0  0  0  0  0  0  0  0  0
    6.0280   -0.8581   -1.6713 H   0  0  0  0  0  0  0  0  0  0  0  0
    7.2872   -1.1318    0.9236 H   0  0  0  0  0  0  0  0  0  0  0  0
    7.3245   -3.1606    1.8531 H   0  0  0  0  0  0  0  0  0  0  0  0
    5.7046   -5.2869    0.3848 H   0  0  0  0  0  0  0  0  0  0  0  0
    5.2504   -5.4631    2.8269 H   0  0  0  0  0  0  0  0  0  0  0  0
    6.3312   -6.7579    2.3171 H   0  0  0  0  0  0  0  0  0  0  0  0
    6.9780   -5.3524    3.1663 H   0  0  0  0  0  0  0  0  0  0  0  0
    7.8720   -6.4543    0.3603 H   0  0  0  0  0  0  0  0  0  0  0  0
    7.9899   -4.8875   -0.4394 H   0  0  0  0  0  0  0  0  0  0  0  0
    8.6361   -5.0977    1.1925 H   0  0  0  0  0  0  0  0  0  0  0  0
    4.0119   -3.5327    4.6974 H   0  0  0  0  0  0  0  0  0  0  0  0
    5.2950   -2.6204    5.5131 H   0  0  0  0  0  0  0  0  0  0  0  0
    2.2874   -2.0486    5.6379 H   0  0  0  0  0  0  0  0  0  0  0  0
    3.2929   -2.6826    6.9706 H   0  0  0  0  0  0  0  0  0  0  0  0
    7.1959    3.9073    6.6008 H   0  0  0  0  0  0  0  0  0  0  0  0
    6.0392    2.5768    6.7022 H   0  0  0  0  0  0  0  0  0  0  0  0
    5.4758    4.2207    6.3063 H   0  0  0  0  0  0  0  0  0  0  0  0
    6.3206    5.4152    9.7188 H   0  0  0  0  0  0  0  0  0  0  0  0
    7.4273    5.4269    8.3490 H   0  0  0  0  0  0  0  0  0  0  0  0
    5.7570    5.9751    8.1250 H   0  0  0  0  0  0  0  0  0  0  0  0
    5.9873    2.8642   10.6997 H   0  0  0  0  0  0  0  0  0  0  0  0
    4.9377    4.2738   10.9320 H   0  0  0  0  0  0  0  0  0  0  0  0
    4.2438    2.6539   10.8959 H   0  0  0  0  0  0  0  0  0  0  0  0
    2.7000    3.7243    9.0369 H   0  0  0  0  0  0  0  0  0  0  0  0
    3.6635    5.2048    9.0201 H   0  0  0  0  0  0  0  0  0  0  0  0
    3.4395    4.2702    7.5313 H   0  0  0  0  0  0  0  0  0  0  0  0
    2.6670    0.3096    4.9638 H   0  0  0  0  0  0  0  0  0  0  0  0
    3.9019    1.2423    5.8431 H   0  0  0  0  0  0  0  0  0  0  0  0
    5.6959   -0.1458    4.8091 H   0  0  0  0  0  0  0  0  0  0  0  0
    4.6684    0.5370    3.5400 H   0  0  0  0  0  0  0  0  0  0  0  0
    3.3271   -3.7126    2.2163 H   0  0  0  0  0  0  0  0  0  0  0  0
    3.5097   -2.3783    1.0592 H   0  0  0  0  0  0  0  0  0  0  0  0
    4.1070   -3.9808    0.6489 H   0  0  0  0  0  0  0  0  0  0  0  0
    7.2920    1.0245    0.3079 H   0  0  0  0  0  0  0  0  0  0  0  0
    7.1866    1.5577   -1.3663 H   0  0  0  0  0  0  0  0  0  0  0  0
    5.2564    2.3203    0.0000 H   0  0  0  0  0  0  0  0  0  0  0  0
    4.9434    2.0540   -2.4040 H   0  0  0  0  0  0  0  0  0  0  0  0
    4.5041    0.3269   -2.2002 H   0  0  0  0  0  0  0  0  0  0  0  0
    1.5009    1.0922   -0.2932 H   0  0  0  0  0  0  0  0  0  0  0  0
    2.5150   -0.2230   -0.9391 H   0  0  0  0  0  0  0  0  0  0  0  0
    3.3288    1.7965    1.2167 H   0  0  0  0  0  0  0  0  0  0  0  0
    2.9545    0.0659    1.4796 H   0  0  0  0  0  0  0  0  0  0  0  0
   10.0290   -1.0734   -3.6176 H   0  0  0  0  0  0  0  0  0  0  0  0
    9.1929   -2.3772   -4.5130 H   0  0  0  0  0  0  0  0  0  0  0  0
    8.6937    0.6316   -4.7410 H   0  0  0  0  0  0  0  0  0  0  0  0
    9.3717   -0.4097   -5.9980 H   0  0  0  0  0  0  0  0  0  0  0  0
    7.2371   -1.6271   -6.1988 H   0  0  0  0  0  0  0  0  0  0  0  0
    6.9065    0.1095   -6.3402 H   0  0  0  0  0  0  0  0  0  0  0  0
   -0.5927    3.8489   -2.9508 H   0  0  0  0  0  0  0  0  0  0  0  0
    0.8913    2.9975   -1.1968 H   0  0  0  0  0  0  0  0  0  0  0  0
    3.5936    1.4128   -4.1180 H   0  0  0  0  0  0  0  0  0  0  0  0
  1  2  1  0  0  0  0
  2  3  1  0  0  0  0
  3  4  1  0  0  0  0
  2  5  1  0  0  0  0
  5  6  4  0  0  0  0
  6  7  4  0  0  0  0
  7  8  4  0  0  0  0
  8  9  4  0  0  0  0
  5 10  4  0  0  0  0
  9 10  4  0  0  0  0
 10 11  1  0  0  0  0
 11 12  1  0  0  0  0
 12 13  1  0  0  0  0
 13 14  1  0  0  0  0
 11 15  2  0  0  0  0
 15 16  1  0  0  0  0
 16 17  1  0  0  0  0
 17 18  1  0  0  0  0
 17 19  1  0  0  0  0
 17 20  1  0  0  0  0
 20 21  1  0  0  0  0
 21 22  1  0  0  0  0
 22 23  1  0  0  0  0
 23 24  1  0  0  0  0
 24 25  1  0  0  0  0
 25 26  4  0  0  0  0
 26 27  1  0  0  0  0
 27 28  1  0  0  0  0
 28 29  4  0  0  0  0
 29 30  1  0  0  0  0
 30 31  1  0  0  0  0
 31 32  1  0  0  0  0
 31 33  1  0  0  0  0
 30 34  1  0  0  0  0
 34 35  4  0  0  0  0
 35 36  1  0  0  0  0
 36 37  1  0  0  0  0
 37 38  1  0  0  0  0
 38 39  1  0  0  0  0
 39 40  4  0  0  0  0
 40 41  1  0  0  0  0
 41 42  3  0  0  0  0
 42 43  1  0  0  0  0
 43 44  1  0  0  0  0
 44 45  1  0  0  0  0
 44 46  1  0  0  0  0
 43 47  1  0  0  0  0
 43 48  1  0  0  0  0
 40 49  2  0  0  0  0
 39 50  1  0  0  0  0
 36 51  1  0  0  0  0
 50 51  1  0  0  0  0
 35 52  2  0  0  0  0
 34 53  1  0  0  0  0
 29 54  2  0  0  0  0
 27 55  1  0  0  0  0
 55 56  1  0  0  0  0
 56 57  1  0  0  0  0
 57 58  1  0  0  0  0
 58 59  1  0  0  0  0
 59 60  1  0  0  0  0
 56 61  1  0  0  0  0
 60 61  1  0  0  0  0
 26 62  2  0  0  0  0
 25 63  1  0  0  0  0
 63 64  1  0  0  0  0
 23 65  1  0  0  0  0
 64 65  1  0  0  0  0
 22 66  2  0  0  0  0
 15 67  4  0  0  0  0
 12 68  1  0  0  0  0
 67 68  4  0  0  0  0
 68 69  4  0  0  0  0
 69 70  2  0  0  0  0
 58 71  1  0  0  0  0
 70 71  4  0  0  0  0
 67 72  4  0  0  0  0
 71 72  4  0  0  0  0
 36 73  1  0  0  0  0
  1 74  1  0  0  0  0
  1 75  1  0  0  0  0
  1 76  1  0  0  0  0
  2 77  1  0  0  0  0
  4 78  1  0  0  0  0
  4 79  1  0  0  0  0
  4 80  1  0  0  0  0
  7 81  1  0  0  0  0
  8 82  1  0  0  0  0
  9 83  1  0  0  0  0
 13 84  1  0  0  0  0
 13 85  1  0  0  0  0
 14 86  1  0  0  0  0
 14 87  1  0  0  0  0
 14 88  1  0  0  0  0
 16 89  1  0  0  0  0
 16 90  1  0  0  0  0
 18 91  1  0  0  0  0
 18 92  1  0  0  0  0
 18 93  1  0  0  0  0
 19 94  1  0  0  0  0
 19 95  1  0  0  0  0
 19 96  1  0  0  0  0
 20 97  1  0  0  0  0
 20 98  1  0  0  0  0
 23 99  1  0  0  0  0
 24100  1  0  0  0  0
 27101  1  0  0  0  0
 28102  1  0  0  0  0
 30103  1  0  0  0  0
 31104  1  0  0  0  0
 32105  1  0  0  0  0
 32106  1  0  0  0  0
 32107  1  0  0  0  0
 33108  1  0  0  0  0
 33109  1  0  0  0  0
 33110  1  0  0  0  0
 37111  1  0  0  0  0
 37112  1  0  0  0  0
 38113  1  0  0  0  0
 38114  1  0  0  0  0
 45115  1  0  0  0  0
 45116  1  0  0  0  0
 45117  1  0  0  0  0
 46118  1  0  0  0  0
 46119  1  0  0  0  0
 46120  1  0  0  0  0
 47121  1  0  0  0  0
 47122  1  0  0  0  0
 47123  1  0  0  0  0
 48124  1  0  0  0  0
 48125  1  0  0  0  0
 48126  1  0  0  0  0
 50127  1  0  0  0  0
 50128  1  0  0  0  0
 51129  1  0  0  0  0
 51130  1  0  0  0  0
 53131  1  0  0  0  0
 53132  1  0  0  0  0
 53133  1  0  0  0  0
 55134  1  0  0  0  0
 55135  1  0  0  0  0
 56136  1  0  0  0  0
 57137  1  0  0  0  0
 57138  1  0  0  0  0
 59139  1  0  0  0  0
 59140  1  0  0  0  0
 60141  1  0  0  0  0
 60142  1  0  0  0  0
 63143  1  0  0  0  0
 63144  1  0  0  0  0
 64145  1  0  0  0  0
 64146  1  0  0  0  0
 65147  1  0  0  0  0
 65148  1  0  0  0  0
 69149  1  0  0  0  0
 70150  1  0  0  0  0
 72151  1  0  0  0  0
M  END
$$$$
