 energy: -221.270855939303 gnorm: 0.000367398454 xtb: 6.7.1 (edcfbbe)
          08182521203D

151157  0     0  0            999 V2000
   -0.3505   15.5434  -12.5645 C   0  0  0  0  0  0  0  0  0  0  0  0
   -0.3834   14.7723  -11.2434 C   0  0  0  0  0  0  0  0  0  0  0  0
   -0.3224   15.6196  -10.1060 O   0  0  0  0  0  0  0  0  0  0  0  0
   -1.4815   16.3805   -9.8798 C   0  0  0  0  0  0  0  0  0  0  0  0
    0.8177   13.8519  -11.1559 C   0  0  0  0  0  0  0  0  0  0  0  0
    1.9719   14.3755  -11.5347 N   0  0  0  0  0  0  0  0  0  0  0  0
    3.0625   13.6353  -11.5145 C   0  0  0  0  0  0  0  0  0  0  0  0
    3.0624   12.3006  -11.1394 C   0  0  0  0  0  0  0  0  0  0  0  0
    1.8613   11.7426  -10.7438 C   0  0  0  0  0  0  0  0  0  0  0  0
    0.7058   12.5229  -10.7228 C   0  0  0  0  0  0  0  0  0  0  0  0
   -0.5755   11.9493  -10.2957 C   0  0  0  0  0  0  0  0  0  0  0  0
   -1.2076   10.9962  -11.0724 N   0  0  0  0  0  0  0  0  0  0  0  0
   -0.7380   10.4537  -12.3198 C   0  0  0  0  0  0  0  0  0  0  0  0
   -0.2144    9.0258  -12.1669 C   0  0  0  0  0  0  0  0  0  0  0  0
   -1.3459   12.2493   -9.1964 C   0  0  0  0  0  0  0  0  0  0  0  0
   -1.0597   13.1860   -8.0680 C   0  0  0  0  0  0  0  0  0  0  0  0
   -0.1395   12.6359   -6.9524 C   0  0  0  0  0  0  0  0  0  0  0  0
   -0.1074   13.6595   -5.8154 C   0  0  0  0  0  0  0  0  0  0  0  0
    1.2822   12.4459   -7.4859 C   0  0  0  0  0  0  0  0  0  0  0  0
   -0.6105   11.2588   -6.4371 C   0  0  0  0  0  0  0  0  0  0  0  0
   -1.6129   11.2913   -5.4148 O   0  0  0  0  0  0  0  0  0  0  0  0
   -1.1960   11.1840   -4.1557 C   0  0  0  0  0  0  0  0  0  0  0  0
   -2.3830   11.0237   -3.2072 C   0  0  0  0  0  0  0  0  0  0  0  0
   -2.6279    9.5796   -3.1372 N   0  0  0  0  0  0  0  0  0  0  0  0
   -3.7042    9.2578   -2.2981 N   0  0  0  0  0  0  0  0  0  0  0  0
   -4.9332    8.8454   -2.6654 C   0  0  0  0  0  0  0  0  0  0  0  0
   -5.2327    8.8443   -4.1689 C   0  0  0  0  0  0  0  0  0  0  0  0
   -6.2106    7.8337   -4.4863 N   0  0  0  0  0  0  0  0  0  0  0  0
   -5.9511    6.8503   -5.3623 C   0  0  0  0  0  0  0  0  0  0  0  0
   -7.1494    5.9576   -5.6880 C   0  0  0  0  0  0  0  0  0  0  0  0
   -6.8017    4.4667   -5.5784 C   0  0  0  0  0  0  0  0  0  0  0  0
   -8.0160    3.6103   -5.9257 C   0  0  0  0  0  0  0  0  0  0  0  0
   -6.3297    4.1744   -4.1552 C   0  0  0  0  0  0  0  0  0  0  0  0
   -7.6145    6.3426   -7.0216 N   0  0  0  0  0  0  0  0  0  0  0  0
   -8.7265    7.0946   -7.0849 C   0  0  0  0  0  0  0  0  0  0  0  0
   -9.3302    7.4428   -8.4569 C   0  0  0  0  0  0  0  0  0  0  0  0
  -10.8568    7.5215   -8.3393 C   0  0  0  0  0  0  0  0  0  0  0  0
  -11.4730    8.0228   -9.6491 C   0  0  0  0  0  0  0  0  0  0  0  0
  -10.8852    9.2800  -10.0348 N   0  0  0  0  0  0  0  0  0  0  0  0
  -11.5065   10.4835   -9.9656 C   0  0  0  0  0  0  0  0  0  0  0  0
  -12.9237   10.4309   -9.7046 C   0  0  0  0  0  0  0  0  0  0  0  0
  -14.1122   10.5304   -9.5380 C   0  0  0  0  0  0  0  0  0  0  0  0
  -15.5355   10.7068   -9.2542 C   0  0  0  0  0  0  0  0  0  0  0  0
  -15.7641   11.9028   -8.4271 N   0  0  0  0  0  0  0  0  0  0  0  0
  -15.1453   11.8267   -7.1159 C   0  0  0  0  0  0  0  0  0  0  0  0
  -15.3851   13.1422   -9.0839 C   0  0  0  0  0  0  0  0  0  0  0  0
  -16.0659    9.4581   -8.5300 C   0  0  0  0  0  0  0  0  0  0  0  0
  -16.2823   10.8422  -10.5918 C   0  0  0  0  0  0  0  0  0  0  0  0
  -10.9302   11.5433  -10.1421 O   0  0  0  0  0  0  0  0  0  0  0  0
   -9.4567    9.2214  -10.2291 C   0  0  0  0  0  0  0  0  0  0  0  0
   -8.7731    8.7886   -8.9330 C   0  0  0  0  0  0  0  0  0  0  0  0
   -9.2779    7.5315   -6.0836 O   0  0  0  0  0  0  0  0  0  0  0  0
   -6.7568    6.0012   -8.1365 C   0  0  0  0  0  0  0  0  0  0  0  0
   -4.8740    6.7315   -5.9225 O   0  0  0  0  0  0  0  0  0  0  0  0
   -5.7444   10.2465   -4.5408 C   0  0  0  0  0  0  0  0  0  0  0  0
   -5.2916   10.6872   -5.9390 C   0  0  0  0  0  0  0  0  0  0  0  0
   -5.9274    9.8236   -7.0470 C   0  0  0  0  0  0  0  0  0  0  0  0
   -5.9935   10.4972   -8.3283 N   0  0  0  0  0  0  0  0  0  0  0  0
   -6.7195   11.7651   -8.2474 C   0  0  0  0  0  0  0  0  0  0  0  0
   -6.7907   12.2989   -6.8085 C   0  0  0  0  0  0  0  0  0  0  0  0
   -5.5786   12.0675   -6.1247 O   0  0  0  0  0  0  0  0  0  0  0  0
   -5.7800    8.5123   -1.8552 O   0  0  0  0  0  0  0  0  0  0  0  0
   -3.3869    9.5736   -0.9196 C   0  0  0  0  0  0  0  0  0  0  0  0
   -3.1360   11.0791   -0.8141 C   0  0  0  0  0  0  0  0  0  0  0  0
   -2.0382   11.4933   -1.7930 C   0  0  0  0  0  0  0  0  0  0  0  0
   -0.0474   11.1484   -3.8080 O   0  0  0  0  0  0  0  0  0  0  0  0
   -2.5370   11.4717   -9.3214 C   0  0  0  0  0  0  0  0  0  0  0  0
   -2.4100   10.6947  -10.4965 C   0  0  0  0  0  0  0  0  0  0  0  0
   -3.4253    9.8365  -10.9047 C   0  0  0  0  0  0  0  0  0  0  0  0
   -4.5697    9.7852  -10.1399 C   0  0  0  0  0  0  0  0  0  0  0  0
   -4.7291   10.5836   -8.9989 C   0  0  0  0  0  0  0  0  0  0  0  0
   -3.7177   11.4264   -8.5836 C   0  0  0  0  0  0  0  0  0  0  0  0
   -9.0440    6.4581   -9.3998 F   0  0  0  0  0  0  0  0  0  0  0  0
    0.5377   16.1675  -12.5885 H   0  0  0  0  0  0  0  0  0  0  0  0
   -0.3124   14.8405  -13.3927 H   0  0  0  0  0  0  0  0  0  0  0  0
   -1.2374   16.1619  -12.6740 H   0  0  0  0  0  0  0  0  0  0  0  0
   -1.3075   14.1710  -11.1898 H   0  0  0  0  0  0  0  0  0  0  0  0
   -1.3540   16.8436   -8.9026 H   0  0  0  0  0  0  0  0  0  0  0  0
   -1.6125   17.1659  -10.6310 H   0  0  0  0  0  0  0  0  0  0  0  0
   -2.3755   15.7443   -9.8672 H   0  0  0  0  0  0  0  0  0  0  0  0
    3.9706   14.1338  -11.8267 H   0  0  0  0  0  0  0  0  0  0  0  0
    3.9699   11.7178  -11.1553 H   0  0  0  0  0  0  0  0  0  0  0  0
    1.8142   10.7070  -10.4368 H   0  0  0  0  0  0  0  0  0  0  0  0
   -1.5678   10.4626  -13.0350 H   0  0  0  0  0  0  0  0  0  0  0  0
    0.0527   11.1033  -12.7047 H   0  0  0  0  0  0  0  0  0  0  0  0
    0.6428    8.9990  -11.4994 H   0  0  0  0  0  0  0  0  0  0  0  0
   -0.9869    8.3809  -11.7561 H   0  0  0  0  0  0  0  0  0  0  0  0
    0.0890    8.6375  -13.1355 H   0  0  0  0  0  0  0  0  0  0  0  0
   -0.5885   14.0906   -8.4553 H   0  0  0  0  0  0  0  0  0  0  0  0
   -2.0138   13.4629   -7.6150 H   0  0  0  0  0  0  0  0  0  0  0  0
    0.5224   13.3081   -5.0014 H   0  0  0  0  0  0  0  0  0  0  0  0
    0.2935   14.6009   -6.1829 H   0  0  0  0  0  0  0  0  0  0  0  0
   -1.1076   13.8409   -5.4262 H   0  0  0  0  0  0  0  0  0  0  0  0
    1.9681   12.2418   -6.6666 H   0  0  0  0  0  0  0  0  0  0  0  0
    1.3208   11.6128   -8.1814 H   0  0  0  0  0  0  0  0  0  0  0  0
    1.6160   13.3432   -8.0010 H   0  0  0  0  0  0  0  0  0  0  0  0
   -1.0511   10.6845   -7.2555 H   0  0  0  0  0  0  0  0  0  0  0  0
    0.2503   10.7194   -6.0290 H   0  0  0  0  0  0  0  0  0  0  0  0
   -3.2399   11.5820   -3.6159 H   0  0  0  0  0  0  0  0  0  0  0  0
   -2.7396    9.1680   -4.0567 H   0  0  0  0  0  0  0  0  0  0  0  0
   -4.3525    8.5812   -4.7634 H   0  0  0  0  0  0  0  0  0  0  0  0
   -7.0766    7.8605   -3.9691 H   0  0  0  0  0  0  0  0  0  0  0  0
   -7.9732    6.1825   -5.0040 H   0  0  0  0  0  0  0  0  0  0  0  0
   -5.9830    4.2396   -6.2663 H   0  0  0  0  0  0  0  0  0  0  0  0
   -8.8285    3.8108   -5.2303 H   0  0  0  0  0  0  0  0  0  0  0  0
   -8.3707    3.8169   -6.9321 H   0  0  0  0  0  0  0  0  0  0  0  0
   -7.7612    2.5553   -5.8616 H   0  0  0  0  0  0  0  0  0  0  0  0
   -7.1077    4.4181   -3.4347 H   0  0  0  0  0  0  0  0  0  0  0  0
   -6.0835    3.1206   -4.0522 H   0  0  0  0  0  0  0  0  0  0  0  0
   -5.4436    4.7576   -3.9162 H   0  0  0  0  0  0  0  0  0  0  0  0
  -11.2479    6.5307   -8.1031 H   0  0  0  0  0  0  0  0  0  0  0  0
  -11.0995    8.1931   -7.5160 H   0  0  0  0  0  0  0  0  0  0  0  0
  -11.2805    7.2897  -10.4416 H   0  0  0  0  0  0  0  0  0  0  0  0
  -12.5513    8.1460   -9.5346 H   0  0  0  0  0  0  0  0  0  0  0  0
  -15.3807   12.7422   -6.5749 H   0  0  0  0  0  0  0  0  0  0  0  0
  -15.5577   10.9939   -6.5521 H   0  0  0  0  0  0  0  0  0  0  0  0
  -14.0514   11.7232   -7.1625 H   0  0  0  0  0  0  0  0  0  0  0  0
  -15.5713   13.9639   -8.3939 H   0  0  0  0  0  0  0  0  0  0  0  0
  -14.3258   13.1666   -9.3757 H   0  0  0  0  0  0  0  0  0  0  0  0
  -16.0014   13.3037   -9.9647 H   0  0  0  0  0  0  0  0  0  0  0  0
  -15.4258    9.1740   -7.6991 H   0  0  0  0  0  0  0  0  0  0  0  0
  -17.0681    9.6575   -8.1602 H   0  0  0  0  0  0  0  0  0  0  0  0
  -16.1048    8.6205   -9.2225 H   0  0  0  0  0  0  0  0  0  0  0  0
  -17.3046   11.1579  -10.4012 H   0  0  0  0  0  0  0  0  0  0  0  0
  -15.7977   11.5606  -11.2469 H   0  0  0  0  0  0  0  0  0  0  0  0
  -16.2969    9.8825  -11.1029 H   0  0  0  0  0  0  0  0  0  0  0  0
   -9.2348    8.5038  -11.0265 H   0  0  0  0  0  0  0  0  0  0  0  0
   -9.1122   10.2136  -10.5265 H   0  0  0  0  0  0  0  0  0  0  0  0
   -8.9824    9.5201   -8.1513 H   0  0  0  0  0  0  0  0  0  0  0  0
   -7.6939    8.7467   -9.0794 H   0  0  0  0  0  0  0  0  0  0  0  0
   -5.7330    5.9408   -7.7706 H   0  0  0  0  0  0  0  0  0  0  0  0
   -7.0423    5.0462   -8.5815 H   0  0  0  0  0  0  0  0  0  0  0  0
   -6.7917    6.7686   -8.9044 H   0  0  0  0  0  0  0  0  0  0  0  0
   -6.8350   10.2517   -4.4816 H   0  0  0  0  0  0  0  0  0  0  0  0
   -5.3822   10.9856   -3.8222 H   0  0  0  0  0  0  0  0  0  0  0  0
   -4.1973   10.6162   -5.9937 H   0  0  0  0  0  0  0  0  0  0  0  0
   -5.3529    8.9043   -7.1708 H   0  0  0  0  0  0  0  0  0  0  0  0
   -6.9485    9.5548   -6.7552 H   0  0  0  0  0  0  0  0  0  0  0  0
   -6.2212   12.4931   -8.8909 H   0  0  0  0  0  0  0  0  0  0  0  0
   -7.7374   11.6172   -8.6280 H   0  0  0  0  0  0  0  0  0  0  0  0
   -6.9308   13.3810   -6.8050 H   0  0  0  0  0  0  0  0  0  0  0  0
   -7.6287   11.8389   -6.2678 H   0  0  0  0  0  0  0  0  0  0  0  0
   -4.2297    9.2598   -0.3039 H   0  0  0  0  0  0  0  0  0  0  0  0
   -2.4888    9.0194   -0.6364 H   0  0  0  0  0  0  0  0  0  0  0  0
   -4.0607   11.6129   -1.0465 H   0  0  0  0  0  0  0  0  0  0  0  0
   -2.8437   11.3322    0.2046 H   0  0  0  0  0  0  0  0  0  0  0  0
   -1.0922   11.0289   -1.5116 H   0  0  0  0  0  0  0  0  0  0  0  0
   -1.9057   12.5756   -1.7868 H   0  0  0  0  0  0  0  0  0  0  0  0
   -3.3363    9.2395  -11.7997 H   0  0  0  0  0  0  0  0  0  0  0  0
   -5.3844    9.1393  -10.4291 H   0  0  0  0  0  0  0  0  0  0  0  0
   -3.8465   12.0645   -7.7233 H   0  0  0  0  0  0  0  0  0  0  0  0
  1  2  1  0  0  0  0
  2  3  1  0  0  0  0
  2  5  1  0  0  0  0
  3  4  1  0  0  0  0
  5  6  2  0  0  0  0
  5 10  1  0  0  0  0
  6  7  1  0  0  0  0
  7  8  2  0  0  0  0
  8  9  1  0  0  0  0
  9 10  2  0  0  0  0
 10 11  1  0  0  0  0
 11 12  1  0  0  0  0
 11 15  2  0  0  0  0
 12 13  1  0  0  0  0
 12 68  1  0  0  0  0
 13 14  1  0  0  0  0
 15 16  1  0  0  0  0
 15 67  1  0  0  0  0
 16 17  1  0  0  0  0
 17 18  1  0  0  0  0
 17 19  1  0  0  0  0
 17 20  1  0  0  0  0
 20 21  1  0  0  0  0
 21 22  1  0  0  0  0
 22 23  1  0  0  0  0
 22 66  2  0  0  0  0
 23 24  1  0  0  0  0
 23 65  1  0  0  0  0
 24 25  1  0  0  0  0
 25 26  1  0  0  0  0
 25 63  1  0  0  0  0
 26 27  1  0  0  0  0
 26 62  2  0  0  0  0
 27 28  1  0  0  0  0
 27 55  1  0  0  0  0
 28 29  1  0  0  0  0
 29 30  1  0  0  0  0
 29 54  2  0  0  0  0
 30 31  1  0  0  0  0
 30 34  1  0  0  0  0
 31 32  1  0  0  0  0
 31 33  1  0  0  0  0
 34 35  1  0  0  0  0
 34 53  1  0  0  0  0
 35 36  1  0  0  0  0
 35 52  2  0  0  0  0
 36 37  1  0  0  0  0
 36 51  1  0  0  0  0
 36 73  1  0  0  0  0
 37 38  1  0  0  0  0
 38 39  1  0  0  0  0
 39 40  1  0  0  0  0
 39 50  1  0  0  0  0
 40 41  1  0  0  0  0
 40 49  2  0  0  0  0
 42 43  1  0  0  0  0
 43 44  1  0  0  0  0
 43 47  1  0  0  0  0
 43 48  1  0  0  0  0
 44 45  1  0  0  0  0
 44 46  1  0  0  0  0
 50 51  1  0  0  0  0
 55 56  1  0  0  0  0
 56 57  1  0  0  0  0
 56 61  1  0  0  0  0
 57 58  1  0  0  0  0
 58 59  1  0  0  0  0
 58 71  1  0  0  0  0
 59 60  1  0  0  0  0
 60 61  1  0  0  0  0
 63 64  1  0  0  0  0
 64 65  1  0  0  0  0
 67 68  2  0  0  0  0
 67 72  1  0  0  0  0
 68 69  1  0  0  0  0
 69 70  2  0  0  0  0
 70 71  1  0  0  0  0
 71 72  2  0  0  0  0
 41 42  3  0  0  0  0
  1 74  1  0  0  0  0
  1 75  1  0  0  0  0
  1 76  1  0  0  0  0
  2 77  1  0  0  0  0
  4 78  1  0  0  0  0
  4 79  1  0  0  0  0
  4 80  1  0  0  0  0
  7 81  1  0  0  0  0
  8 82  1  0  0  0  0
  9 83  1  0  0  0  0
 13 84  1  0  0  0  0
 13 85  1  0  0  0  0
 14 86  1  0  0  0  0
 14 87  1  0  0  0  0
 14 88  1  0  0  0  0
 16 89  1  0  0  0  0
 16 90  1  0  0  0  0
 18 91  1  0  0  0  0
 18 92  1  0  0  0  0
 18 93  1  0  0  0  0
 19 94  1  0  0  0  0
 19 95  1  0  0  0  0
 19 96  1  0  0  0  0
 20 97  1  0  0  0  0
 20 98  1  0  0  0  0
 23 99  1  0  0  0  0
 24100  1  0  0  0  0
 27101  1  0  0  0  0
 28102  1  0  0  0  0
 30103  1  0  0  0  0
 31104  1  0  0  0  0
 32105  1  0  0  0  0
 32106  1  0  0  0  0
 32107  1  0  0  0  0
 33108  1  0  0  0  0
 33109  1  0  0  0  0
 33110  1  0  0  0  0
 37111  1  0  0  0  0
 37112  1  0  0  0  0
 38113  1  0  0  0  0
 38114  1  0  0  0  0
 45115  1  0  0  0  0
 45116  1  0  0  0  0
 45117  1  0  0  0  0
 46118  1  0  0  0  0
 46119  1  0  0  0  0
 46120  1  0  0  0  0
 47121  1  0  0  0  0
 47122  1  0  0  0  0
 47123  1  0  0  0  0
 48124  1  0  0  0  0
 48125  1  0  0  0  0
 48126  1  0  0  0  0
 50127  1  0  0  0  0
 50128  1  0  0  0  0
 51129  1  0  0  0  0
 51130  1  0  0  0  0
 53131  1  0  0  0  0
 53132  1  0  0  0  0
 53133  1  0  0  0  0
 55134  1  0  0  0  0
 55135  1  0  0  0  0
 56136  1  0  0  0  0
 57137  1  0  0  0  0
 57138  1  0  0  0  0
 59139  1  0  0  0  0
 59140  1  0  0  0  0
 60141  1  0  0  0  0
 60142  1  0  0  0  0
 63143  1  0  0  0  0
 63144  1  0  0  0  0
 64145  1  0  0  0  0
 64146  1  0  0  0  0
 65147  1  0  0  0  0
 65148  1  0  0  0  0
 69149  1  0  0  0  0
 70150  1  0  0  0  0
 72151  1  0  0  0  0
M  END
$$$$
